* NGSPICE file created from tt_um_analog_RO_parax.ext - technology: sky130A

.subckt tt_um_analog_RO_parax clk rst_n ua[2] ua[3] ua[4] ua[5] ua[6] ua[7] ui_in[0]
+ ui_in[1] ui_in[2] ui_in[3] ui_in[4] ui_in[5] ui_in[6] ui_in[7] uio_in[0] uio_in[1]
+ uio_in[2] uio_in[3] uio_in[4] uio_in[5] uio_in[6] uio_in[7] uio_oe[0] uio_oe[1]
+ uio_oe[2] uio_oe[3] uio_oe[4] uio_oe[5] uio_oe[6] uio_oe[7] uio_out[0] uio_out[1]
+ uio_out[2] uio_out[3] uio_out[4] uio_out[5] uio_out[6] uio_out[7] uo_out[0] uo_out[1]
+ uo_out[2] uo_out[3] uo_out[4] uo_out[5] uo_out[6] uo_out[7] VGND ua[1] ena ua[0]
+ VDPWR
X0 VGND sky130_hd_ro32_nand_0.sky130_hd_inv_1_3.Y sky130_hd_ro32_nand_0.sky130_hd_inv_1_2.Y VGND sky130_fd_pr__nfet_01v8 ad=0.169 pd=1.82 as=0.0878 ps=0.92 w=0.65 l=0.15
X1 a_28123_3889# a_27631_3850# VGND VGND sky130_fd_pr__nfet_01v8 ad=0.066 pd=0.745 as=0.109 ps=1.36 w=0.42 l=0.15
X2 a_28324_3901# a_28188_3741# a_27903_3755# VDPWR sky130_fd_pr__pfet_01v8_hvt ad=0.109 pd=1.08 as=0.0567 ps=0.69 w=0.42 l=0.15
X3 a_27746_1891# sky130_hd_div_by_2_0.Qb VDPWR VDPWR sky130_fd_pr__pfet_01v8_hvt ad=0.0578 pd=0.695 as=0.109 ps=1.36 w=0.42 l=0.15
X4 VGND a_28424_3247# a_28855_3301# VGND sky130_fd_pr__nfet_01v8 ad=0.097 pd=0.975 as=0.109 ps=1.36 w=0.42 l=0.15
X5 VDPWR sky130_hd_ro32_nand_0.sky130_hd_inv_1_7.Y sky130_hd_ro32_nand_0.sky130_hd_inv_1_6.Y VDPWR sky130_fd_pr__pfet_01v8 ad=0.26 pd=2.52 as=0.135 ps=1.27 w=1 l=0.15
X6 a_27536_3497# a_27631_3850# VDPWR VDPWR sky130_fd_pr__pfet_01v8_hvt ad=0.166 pd=1.8 as=0.154 ps=1.34 w=0.64 l=0.15
X7 VGND a_28424_2159# a_28855_2213# VGND sky130_fd_pr__nfet_01v8 ad=0.097 pd=0.975 as=0.109 ps=1.36 w=0.42 l=0.15
X8 sky130_hd_ro32_nand_0.sky130_hd_inv_1_13.Y sky130_hd_ro32_nand_0.sky130_hd_inv_1_14.Y VDPWR VDPWR sky130_fd_pr__pfet_01v8 ad=0.135 pd=1.27 as=0.26 ps=2.52 w=1 l=0.15
X9 VDPWR sky130_hd_ro32_nand_0.sky130_hd_inv_1_4.Y sky130_hd_ro32_nand_0.sky130_hd_inv_1_3.Y VDPWR sky130_fd_pr__pfet_01v8 ad=0.26 pd=2.52 as=0.135 ps=1.27 w=1 l=0.15
X10 sky130_hd_ro32_nand_0.sky130_hd_inv_1_6.Y sky130_hd_ro32_nand_0.sky130_hd_inv_1_7.Y VGND VGND sky130_fd_pr__nfet_01v8 ad=0.0878 pd=0.92 as=0.169 ps=1.82 w=0.65 l=0.15
X11 a_27831_3345# a_27392_2979# a_27746_2979# VGND sky130_fd_pr__special_nfet_01v8 ad=0.0621 pd=0.705 as=0.0813 ps=0.83 w=0.36 l=0.15
X12 VDPWR sky130_hd_ro32_nand_0.sky130_hd_inv_1_1.Y ua[0] VDPWR sky130_fd_pr__pfet_01v8 ad=0.26 pd=2.52 as=0.135 ps=1.27 w=1 l=0.15
X13 a_27957_2979# a_27558_2979# a_27831_3345# VGND sky130_fd_pr__special_nfet_01v8 ad=0.0696 pd=0.765 as=0.0621 ps=0.705 w=0.36 l=0.15
X14 a_27831_2257# a_27392_1891# a_27746_1891# VGND sky130_fd_pr__special_nfet_01v8 ad=0.0621 pd=0.705 as=0.0813 ps=0.83 w=0.36 l=0.15
X15 VDPWR sky130_hd_ro32_nand_0.sky130_hd_inv_1_28.Y sky130_hd_ro32_nand_0.sky130_hd_inv_1_27.Y VDPWR sky130_fd_pr__pfet_01v8 ad=0.26 pd=2.52 as=0.135 ps=1.27 w=1 l=0.15
X16 a_27746_2979# sky130_hd_div_by_2_3.Qb VGND VGND sky130_fd_pr__nfet_01v8 ad=0.0813 pd=0.83 as=0.109 ps=1.36 w=0.42 l=0.15
X17 VGND a_28188_1565# a_28195_1469# VGND sky130_fd_pr__nfet_01v8 ad=0.0567 pd=0.69 as=0.109 ps=1.36 w=0.42 l=0.15
X18 a_27957_1891# a_27558_1891# a_27831_2257# VGND sky130_fd_pr__special_nfet_01v8 ad=0.0696 pd=0.765 as=0.0621 ps=0.705 w=0.36 l=0.15
X19 VGND sky130_hd_ro32_nand_0.sky130_hd_inv_1_18.Y sky130_hd_ro32_nand_0.sky130_hd_inv_1_17.Y VGND sky130_fd_pr__nfet_01v8 ad=0.169 pd=1.82 as=0.0878 ps=0.92 w=0.65 l=0.15
X20 VGND a_28395_1624# a_28324_1725# VGND sky130_fd_pr__nfet_01v8 ad=0.121 pd=1.09 as=0.0989 ps=0.995 w=0.64 l=0.15
X21 VDPWR a_27631_2762# sky130_hd_div_by_2_2.Q VDPWR sky130_fd_pr__pfet_01v8_hvt ad=0.135 pd=1.27 as=0.26 ps=2.52 w=1 l=0.15
X22 VDPWR sky130_hd_ro32_nand_0.sky130_hd_inv_1_25.Y sky130_hd_ro32_nand_0.sky130_hd_inv_1_24.Y VDPWR sky130_fd_pr__pfet_01v8 ad=0.26 pd=2.52 as=0.135 ps=1.27 w=1 l=0.15
X23 sky130_hd_ro32_nand_0.sky130_hd_inv_1_27.Y sky130_hd_ro32_nand_0.sky130_hd_inv_1_28.Y VGND VGND sky130_fd_pr__nfet_01v8 ad=0.0878 pd=0.92 as=0.169 ps=1.82 w=0.65 l=0.15
X24 VGND sky130_hd_ro32_nand_0.sky130_hd_inv_1_15.Y sky130_hd_ro32_nand_0.sky130_hd_inv_1_14.Y VGND sky130_fd_pr__nfet_01v8 ad=0.169 pd=1.82 as=0.0878 ps=0.92 w=0.65 l=0.15
X25 a_27746_1891# sky130_hd_div_by_2_0.Qb VGND VGND sky130_fd_pr__nfet_01v8 ad=0.0813 pd=0.83 as=0.109 ps=1.36 w=0.42 l=0.15
X26 sky130_hd_ro32_nand_0.sky130_hd_inv_1_30.Y sky130_hd_ro32_nand_0.sky130_hd_inv_1_31.Y VDPWR VDPWR sky130_fd_pr__pfet_01v8 ad=0.135 pd=1.27 as=0.26 ps=2.52 w=1 l=0.15
X27 VDPWR sky130_hd_ro32_nand_0.sky130_hd_inv_1_22.Y sky130_hd_ro32_nand_0.sky130_hd_inv_1_21.Y VDPWR sky130_fd_pr__pfet_01v8 ad=0.26 pd=2.52 as=0.135 ps=1.27 w=1 l=0.15
X28 sky130_hd_ro32_nand_0.sky130_hd_inv_1_24.Y sky130_hd_ro32_nand_0.sky130_hd_inv_1_25.Y VGND VGND sky130_fd_pr__nfet_01v8 ad=0.0878 pd=0.92 as=0.169 ps=1.82 w=0.65 l=0.15
X29 VDPWR sky130_hd_ro32_nand_0.sky130_hd_inv_1_19.Y sky130_hd_ro32_nand_0.sky130_hd_inv_1_18.Y VDPWR sky130_fd_pr__pfet_01v8 ad=0.26 pd=2.52 as=0.135 ps=1.27 w=1 l=0.15
X30 sky130_hd_ro32_nand_0.sky130_hd_inv_1_21.Y sky130_hd_ro32_nand_0.sky130_hd_inv_1_22.Y VGND VGND sky130_fd_pr__nfet_01v8 ad=0.0878 pd=0.92 as=0.169 ps=1.82 w=0.65 l=0.15
X31 a_27999_3091# a_27831_3345# VDPWR VDPWR sky130_fd_pr__pfet_01v8_hvt ad=0.109 pd=1.08 as=0.179 ps=1.26 w=0.75 l=0.15
X32 a_28395_2712# a_28188_2653# a_28571_2435# VDPWR sky130_fd_pr__pfet_01v8_hvt ad=0.0683 pd=0.745 as=0.0767 ps=0.785 w=0.42 l=0.15
X33 VGND a_27536_3497# sky130_hd_div_by_2_4.Qb VGND sky130_fd_pr__nfet_01v8 ad=0.097 pd=0.975 as=0.169 ps=1.82 w=0.65 l=0.15
X34 a_27903_1579# a_28195_1469# a_28146_1347# VDPWR sky130_fd_pr__pfet_01v8_hvt ad=0.0567 pd=0.69 as=0.0882 ps=0.84 w=0.42 l=0.15
X35 a_27999_2003# a_27831_2257# VDPWR VDPWR sky130_fd_pr__pfet_01v8_hvt ad=0.109 pd=1.08 as=0.179 ps=1.26 w=0.75 l=0.15
X36 a_28571_2435# a_28324_2813# VDPWR VDPWR sky130_fd_pr__pfet_01v8_hvt ad=0.0767 pd=0.785 as=0.179 ps=1.26 w=0.42 l=0.15
X37 a_27631_1674# a_27903_1579# VDPWR VDPWR sky130_fd_pr__pfet_01v8_hvt ad=0.27 pd=2.54 as=0.135 ps=1.27 w=1 l=0.15
X38 a_28256_3345# a_27392_2979# a_27999_3091# VDPWR sky130_fd_pr__pfet_01v8_hvt ad=0.0567 pd=0.69 as=0.109 ps=1.08 w=0.42 l=0.15
X39 a_28395_2712# a_28195_2557# a_28544_2801# VGND sky130_fd_pr__special_nfet_01v8 ad=0.0621 pd=0.705 as=0.0696 ps=0.765 w=0.36 l=0.15
X40 VDPWR sky130_hd_ro32_nand_0.sky130_hd_inv_1_8.Y sky130_hd_ro32_nand_0.sky130_hd_inv_1_7.Y VDPWR sky130_fd_pr__pfet_01v8 ad=0.26 pd=2.52 as=0.135 ps=1.27 w=1 l=0.15
X41 a_28742_2813# a_28188_2653# a_28395_2712# VGND sky130_fd_pr__special_nfet_01v8 ad=0.0813 pd=0.83 as=0.0621 ps=0.705 w=0.36 l=0.15
X42 sky130_hd_ro32_nand_0.sky130_hd_inv_1_10.Y sky130_hd_ro32_nand_0.sky130_hd_inv_1_11.Y VGND VGND sky130_fd_pr__nfet_01v8 ad=0.0878 pd=0.92 as=0.169 ps=1.82 w=0.65 l=0.15
X43 VDPWR sky130_hd_ro32_nand_0.sky130_hd_inv_1_5.Y sky130_hd_ro32_nand_0.sky130_hd_inv_1_4.Y VDPWR sky130_fd_pr__pfet_01v8 ad=0.26 pd=2.52 as=0.135 ps=1.27 w=1 l=0.15
X44 sky130_hd_ro32_nand_0.sky130_hd_inv_1_7.Y sky130_hd_ro32_nand_0.sky130_hd_inv_1_8.Y VGND VGND sky130_fd_pr__nfet_01v8 ad=0.0878 pd=0.92 as=0.169 ps=1.82 w=0.65 l=0.15
X45 VDPWR a_28424_3247# a_28340_3345# VDPWR sky130_fd_pr__pfet_01v8_hvt ad=0.111 pd=1.37 as=0.0882 ps=0.84 w=0.42 l=0.15
X46 sky130_hd_ro32_nand_0.sky130_hd_inv_1_14.Y sky130_hd_ro32_nand_0.sky130_hd_inv_1_15.Y VDPWR VDPWR sky130_fd_pr__pfet_01v8 ad=0.135 pd=1.27 as=0.26 ps=2.52 w=1 l=0.15
X47 VDPWR sky130_hd_ro32_nand_0.sky130_hd_inv_1_2.Y sky130_hd_ro32_nand_0.sky130_hd_inv_1_1.Y VDPWR sky130_fd_pr__pfet_01v8 ad=0.26 pd=2.52 as=0.135 ps=1.27 w=1 l=0.15
X48 sky130_hd_ro32_nand_0.sky130_hd_inv_1_4.Y sky130_hd_ro32_nand_0.sky130_hd_inv_1_5.Y VGND VGND sky130_fd_pr__nfet_01v8 ad=0.0878 pd=0.92 as=0.169 ps=1.82 w=0.65 l=0.15
X49 a_28188_3741# ua[0] VGND VGND sky130_fd_pr__nfet_01v8 ad=0.109 pd=1.36 as=0.0567 ps=0.69 w=0.42 l=0.15
X50 sky130_hd_ro32_nand_0.sky130_hd_inv_1_11.Y sky130_hd_ro32_nand_0.sky130_hd_inv_1_12.Y VDPWR VDPWR sky130_fd_pr__pfet_01v8 ad=0.135 pd=1.27 as=0.26 ps=2.52 w=1 l=0.15
X51 a_28742_3901# a_28195_3645# a_28395_3800# VDPWR sky130_fd_pr__pfet_01v8_hvt ad=0.0578 pd=0.695 as=0.0683 ps=0.745 w=0.42 l=0.15
X52 a_28324_1725# a_28195_1469# a_27903_1579# VGND sky130_fd_pr__special_nfet_01v8 ad=0.0989 pd=0.995 as=0.0684 ps=0.74 w=0.36 l=0.15
X53 VDPWR sky130_hd_ro32_nand_0.sky130_hd_inv_1_6.Y sky130_hd_ro32_nand_0.sky130_hd_inv_1_5.Y VDPWR sky130_fd_pr__pfet_01v8 ad=0.26 pd=2.52 as=0.135 ps=1.27 w=1 l=0.15
X54 VDPWR sky130_hd_ro32_nand_0.sky130_hd_inv_1_23.Y sky130_hd_ro32_nand_0.sky130_hd_inv_1_22.Y VDPWR sky130_fd_pr__pfet_01v8 ad=0.26 pd=2.52 as=0.135 ps=1.27 w=1 l=0.15
X55 sky130_hd_ro32_nand_0.sky130_hd_inv_1_28.Y sky130_hd_ro32_nand_0.sky130_hd_inv_1_29.Y VGND VGND sky130_fd_pr__nfet_01v8 ad=0.0878 pd=0.92 as=0.169 ps=1.82 w=0.65 l=0.15
X56 sky130_hd_ro32_nand_0.sky130_hd_inv_1_25.Y sky130_hd_ro32_nand_0.sky130_hd_inv_1_26.Y VGND VGND sky130_fd_pr__nfet_01v8 ad=0.0878 pd=0.92 as=0.169 ps=1.82 w=0.65 l=0.15
X57 VGND sky130_hd_ro32_nand_0.sky130_hd_inv_1_16.Y sky130_hd_ro32_nand_0.sky130_hd_inv_1_15.Y VGND sky130_fd_pr__nfet_01v8 ad=0.169 pd=1.82 as=0.0878 ps=0.92 w=0.65 l=0.15
X58 VDPWR a_28188_3741# a_28195_3645# VDPWR sky130_fd_pr__pfet_01v8_hvt ad=0.0864 pd=0.91 as=0.166 ps=1.8 w=0.64 l=0.15
X59 sky130_hd_ro32_nand_0.sky130_hd_inv_1_31.Y sky130_hd_ro32_nand_0.sky130_hd_nand2_1_0.Y VDPWR VDPWR sky130_fd_pr__pfet_01v8 ad=0.135 pd=1.27 as=0.26 ps=2.52 w=1 l=0.15
X60 sky130_hd_ro32_nand_0.sky130_hd_inv_1_29.Y sky130_hd_ro32_nand_0.sky130_hd_inv_1_30.Y VDPWR VDPWR sky130_fd_pr__pfet_01v8 ad=0.135 pd=1.27 as=0.26 ps=2.52 w=1 l=0.15
X61 VGND a_27631_3850# sky130_hd_div_by_2_4.Q VGND sky130_fd_pr__nfet_01v8 ad=0.0878 pd=0.92 as=0.169 ps=1.82 w=0.65 l=0.15
X62 VDPWR a_28188_2653# a_28195_2557# VDPWR sky130_fd_pr__pfet_01v8_hvt ad=0.0864 pd=0.91 as=0.166 ps=1.8 w=0.64 l=0.15
X63 VDPWR sky130_hd_div_by_2_2.Qb a_28742_2813# VDPWR sky130_fd_pr__pfet_01v8_hvt ad=0.109 pd=1.36 as=0.0578 ps=0.695 w=0.42 l=0.15
X64 VDPWR a_28395_1624# a_28324_1725# VDPWR sky130_fd_pr__pfet_01v8_hvt ad=0.179 pd=1.26 as=0.109 ps=1.08 w=0.75 l=0.15
X65 a_27558_1891# a_27392_1891# VDPWR VDPWR sky130_fd_pr__pfet_01v8_hvt ad=0.166 pd=1.8 as=0.0864 ps=0.91 w=0.64 l=0.15
X66 VDPWR a_27536_2409# sky130_hd_div_by_2_2.Qb VDPWR sky130_fd_pr__pfet_01v8_hvt ad=0.154 pd=1.34 as=0.26 ps=2.52 w=1 l=0.15
X67 a_27631_1674# a_27903_1579# VGND VGND sky130_fd_pr__nfet_01v8 ad=0.169 pd=1.82 as=0.0878 ps=0.92 w=0.65 l=0.15
X68 sky130_hd_ro32_nand_0.sky130_hd_inv_1_18.Y sky130_hd_ro32_nand_0.sky130_hd_inv_1_19.Y VDPWR VDPWR sky130_fd_pr__pfet_01v8 ad=0.135 pd=1.27 as=0.26 ps=2.52 w=1 l=0.15
X69 VGND sky130_hd_ro32_nand_0.sky130_hd_inv_1_31.Y sky130_hd_ro32_nand_0.sky130_hd_inv_1_30.Y VGND sky130_fd_pr__nfet_01v8 ad=0.169 pd=1.82 as=0.0878 ps=0.92 w=0.65 l=0.15
X70 a_27903_3755# a_28188_3741# a_28123_3889# VGND sky130_fd_pr__special_nfet_01v8 ad=0.0684 pd=0.74 as=0.066 ps=0.745 w=0.36 l=0.15
X71 sky130_hd_ro32_nand_0.sky130_hd_inv_1_15.Y sky130_hd_ro32_nand_0.sky130_hd_inv_1_16.Y VDPWR VDPWR sky130_fd_pr__pfet_01v8 ad=0.135 pd=1.27 as=0.26 ps=2.52 w=1 l=0.15
X72 sky130_hd_ro32_nand_0.sky130_hd_inv_1_8.Y sky130_hd_ro32_nand_0.sky130_hd_inv_1_9.Y VGND VGND sky130_fd_pr__nfet_01v8 ad=0.0878 pd=0.92 as=0.169 ps=1.82 w=0.65 l=0.15
X73 VDPWR sky130_hd_ro32_nand_0.sky130_hd_inv_1_10.Y sky130_hd_ro32_nand_0.sky130_hd_inv_1_9.Y VDPWR sky130_fd_pr__pfet_01v8 ad=0.26 pd=2.52 as=0.135 ps=1.27 w=1 l=0.15
X74 sky130_hd_ro32_nand_0.sky130_hd_inv_1_12.Y sky130_hd_ro32_nand_0.sky130_hd_inv_1_13.Y VGND VGND sky130_fd_pr__nfet_01v8 ad=0.0878 pd=0.92 as=0.169 ps=1.82 w=0.65 l=0.15
X75 sky130_hd_ro32_nand_0.sky130_hd_inv_1_9.Y sky130_hd_ro32_nand_0.sky130_hd_inv_1_10.Y VGND VGND sky130_fd_pr__nfet_01v8 ad=0.0878 pd=0.92 as=0.169 ps=1.82 w=0.65 l=0.15
X76 sky130_hd_ro32_nand_0.sky130_hd_inv_1_16.Y sky130_hd_ro32_nand_0.sky130_hd_inv_1_17.Y VDPWR VDPWR sky130_fd_pr__pfet_01v8 ad=0.135 pd=1.27 as=0.26 ps=2.52 w=1 l=0.15
X77 VGND sky130_hd_ro32_nand_0.sky130_hd_inv_1_20.Y sky130_hd_ro32_nand_0.sky130_hd_inv_1_19.Y VGND sky130_fd_pr__nfet_01v8 ad=0.169 pd=1.82 as=0.0878 ps=0.92 w=0.65 l=0.15
X78 VDPWR sky130_hd_ro32_nand_0.sky130_hd_inv_1_24.Y sky130_hd_ro32_nand_0.sky130_hd_inv_1_23.Y VDPWR sky130_fd_pr__pfet_01v8 ad=0.26 pd=2.52 as=0.135 ps=1.27 w=1 l=0.15
X79 a_27746_2979# sky130_hd_div_by_2_3.Qb VDPWR VDPWR sky130_fd_pr__pfet_01v8_hvt ad=0.0578 pd=0.695 as=0.109 ps=1.36 w=0.42 l=0.15
X80 sky130_hd_ro32_nand_0.sky130_hd_inv_1_26.Y sky130_hd_ro32_nand_0.sky130_hd_inv_1_27.Y VGND VGND sky130_fd_pr__nfet_01v8 ad=0.0878 pd=0.92 as=0.169 ps=1.82 w=0.65 l=0.15
X81 a_28256_3345# a_27558_2979# a_27999_3091# VGND sky130_fd_pr__special_nfet_01v8 ad=0.0684 pd=0.74 as=0.0989 ps=0.995 w=0.36 l=0.15
X82 VGND sky130_hd_ro32_nand_0.sky130_hd_inv_1_21.Y sky130_hd_ro32_nand_0.sky130_hd_inv_1_20.Y VGND sky130_fd_pr__nfet_01v8 ad=0.169 pd=1.82 as=0.0878 ps=0.92 w=0.65 l=0.15
X83 a_19286_4740# ena VGND VGND sky130_fd_pr__nfet_01v8 ad=0.0878 pd=0.92 as=0.169 ps=1.82 w=0.65 l=0.15
X84 a_28256_2257# a_27558_1891# a_27999_2003# VGND sky130_fd_pr__special_nfet_01v8 ad=0.0684 pd=0.74 as=0.0989 ps=0.995 w=0.36 l=0.15
X85 sky130_hd_ro32_nand_0.sky130_hd_inv_1_2.Y sky130_hd_ro32_nand_0.sky130_hd_inv_1_3.Y VDPWR VDPWR sky130_fd_pr__pfet_01v8 ad=0.135 pd=1.27 as=0.26 ps=2.52 w=1 l=0.15
X86 VGND a_28188_2653# a_28195_2557# VGND sky130_fd_pr__nfet_01v8 ad=0.0567 pd=0.69 as=0.109 ps=1.36 w=0.42 l=0.15
X87 VDPWR a_28424_2159# a_28855_2213# VDPWR sky130_fd_pr__pfet_01v8_hvt ad=0.154 pd=1.34 as=0.166 ps=1.8 w=0.64 l=0.15
X88 a_27831_2257# a_27558_1891# a_27746_1891# VDPWR sky130_fd_pr__pfet_01v8_hvt ad=0.0683 pd=0.745 as=0.0578 ps=0.695 w=0.42 l=0.15
X89 VDPWR a_27631_3850# sky130_hd_div_by_2_4.Q VDPWR sky130_fd_pr__pfet_01v8_hvt ad=0.135 pd=1.27 as=0.26 ps=2.52 w=1 l=0.15
X90 VGND a_28395_2712# a_28324_2813# VGND sky130_fd_pr__nfet_01v8 ad=0.121 pd=1.09 as=0.0989 ps=0.995 w=0.64 l=0.15
X91 VGND a_28256_3345# a_28424_3247# VGND sky130_fd_pr__nfet_01v8 ad=0.0878 pd=0.92 as=0.169 ps=1.82 w=0.65 l=0.15
X92 VDPWR a_27999_2003# a_27926_2257# VDPWR sky130_fd_pr__pfet_01v8_hvt ad=0.179 pd=1.26 as=0.0767 ps=0.785 w=0.42 l=0.15
X93 sky130_hd_ro32_nand_0.sky130_hd_inv_1_23.Y sky130_hd_ro32_nand_0.sky130_hd_inv_1_24.Y VDPWR VDPWR sky130_fd_pr__pfet_01v8 ad=0.135 pd=1.27 as=0.26 ps=2.52 w=1 l=0.15
X94 VGND sky130_hd_ro32_nand_0.sky130_hd_inv_1_7.Y sky130_hd_ro32_nand_0.sky130_hd_inv_1_6.Y VGND sky130_fd_pr__nfet_01v8 ad=0.169 pd=1.82 as=0.0878 ps=0.92 w=0.65 l=0.15
X95 VGND a_27999_3091# a_27957_2979# VGND sky130_fd_pr__nfet_01v8 ad=0.121 pd=1.09 as=0.0696 ps=0.765 w=0.42 l=0.15
X96 VGND a_28256_2257# a_28424_2159# VGND sky130_fd_pr__nfet_01v8 ad=0.0878 pd=0.92 as=0.169 ps=1.82 w=0.65 l=0.15
X97 sky130_hd_ro32_nand_0.sky130_hd_inv_1_20.Y sky130_hd_ro32_nand_0.sky130_hd_inv_1_21.Y VDPWR VDPWR sky130_fd_pr__pfet_01v8 ad=0.135 pd=1.27 as=0.26 ps=2.52 w=1 l=0.15
X98 VDPWR sky130_hd_ro32_nand_0.sky130_hd_inv_1_11.Y sky130_hd_ro32_nand_0.sky130_hd_inv_1_10.Y VDPWR sky130_fd_pr__pfet_01v8 ad=0.26 pd=2.52 as=0.135 ps=1.27 w=1 l=0.15
X99 sky130_hd_ro32_nand_0.sky130_hd_inv_1_13.Y sky130_hd_ro32_nand_0.sky130_hd_inv_1_14.Y VGND VGND sky130_fd_pr__nfet_01v8 ad=0.0878 pd=0.92 as=0.169 ps=1.82 w=0.65 l=0.15
X100 VGND sky130_hd_ro32_nand_0.sky130_hd_inv_1_4.Y sky130_hd_ro32_nand_0.sky130_hd_inv_1_3.Y VGND sky130_fd_pr__nfet_01v8 ad=0.169 pd=1.82 as=0.0878 ps=0.92 w=0.65 l=0.15
X101 a_28395_3800# a_28188_3741# a_28571_3523# VDPWR sky130_fd_pr__pfet_01v8_hvt ad=0.0683 pd=0.745 as=0.0767 ps=0.785 w=0.42 l=0.15
X102 a_27926_2257# a_27392_1891# a_27831_2257# VDPWR sky130_fd_pr__pfet_01v8_hvt ad=0.0767 pd=0.785 as=0.0683 ps=0.745 w=0.42 l=0.15
X103 VGND sky130_hd_ro32_nand_0.sky130_hd_inv_1_1.Y ua[0] VGND sky130_fd_pr__nfet_01v8 ad=0.169 pd=1.82 as=0.0878 ps=0.92 w=0.65 l=0.15
X104 VGND a_27999_2003# a_27957_1891# VGND sky130_fd_pr__nfet_01v8 ad=0.121 pd=1.09 as=0.0696 ps=0.765 w=0.42 l=0.15
X105 sky130_hd_div_by_2_3.Qb a_28855_3301# VGND VGND sky130_fd_pr__nfet_01v8 ad=0.169 pd=1.82 as=0.097 ps=0.975 w=0.65 l=0.15
X106 VDPWR a_28256_3345# a_28424_3247# VDPWR sky130_fd_pr__pfet_01v8_hvt ad=0.135 pd=1.27 as=0.27 ps=2.54 w=1 l=0.15
X107 sky130_hd_ro32_nand_0.sky130_hd_inv_1_17.Y sky130_hd_ro32_nand_0.sky130_hd_inv_1_18.Y VDPWR VDPWR sky130_fd_pr__pfet_01v8 ad=0.135 pd=1.27 as=0.26 ps=2.52 w=1 l=0.15
X108 a_28571_3523# a_28324_3901# VDPWR VDPWR sky130_fd_pr__pfet_01v8_hvt ad=0.0767 pd=0.785 as=0.179 ps=1.26 w=0.42 l=0.15
X109 VGND sky130_hd_div_by_2_1.Qb a_28742_1725# VGND sky130_fd_pr__nfet_01v8 ad=0.109 pd=1.36 as=0.0813 ps=0.83 w=0.42 l=0.15
X110 a_27903_2667# a_28195_2557# a_28146_2435# VDPWR sky130_fd_pr__pfet_01v8_hvt ad=0.0567 pd=0.69 as=0.0882 ps=0.84 w=0.42 l=0.15
X111 a_28395_3800# a_28195_3645# a_28544_3889# VGND sky130_fd_pr__special_nfet_01v8 ad=0.0621 pd=0.705 as=0.0696 ps=0.765 w=0.36 l=0.15
X112 VGND sky130_hd_div_by_2_4.Q a_27392_2979# VGND sky130_fd_pr__nfet_01v8 ad=0.0567 pd=0.69 as=0.109 ps=1.36 w=0.42 l=0.15
X113 sky130_hd_div_by_2_0.Qb a_28855_2213# VGND VGND sky130_fd_pr__nfet_01v8 ad=0.169 pd=1.82 as=0.097 ps=0.975 w=0.65 l=0.15
X114 VDPWR a_28256_2257# a_28424_2159# VDPWR sky130_fd_pr__pfet_01v8_hvt ad=0.135 pd=1.27 as=0.27 ps=2.54 w=1 l=0.15
X115 a_27631_2762# a_27903_2667# VDPWR VDPWR sky130_fd_pr__pfet_01v8_hvt ad=0.27 pd=2.54 as=0.135 ps=1.27 w=1 l=0.15
X116 VGND sky130_hd_ro32_nand_0.sky130_hd_inv_1_28.Y sky130_hd_ro32_nand_0.sky130_hd_inv_1_27.Y VGND sky130_fd_pr__nfet_01v8 ad=0.169 pd=1.82 as=0.0878 ps=0.92 w=0.65 l=0.15
X117 VGND sky130_hd_ro32_nand_0.sky130_hd_inv_1_25.Y sky130_hd_ro32_nand_0.sky130_hd_inv_1_24.Y VGND sky130_fd_pr__nfet_01v8 ad=0.169 pd=1.82 as=0.0878 ps=0.92 w=0.65 l=0.15
X118 a_28742_3901# a_28188_3741# a_28395_3800# VGND sky130_fd_pr__special_nfet_01v8 ad=0.0813 pd=0.83 as=0.0621 ps=0.705 w=0.36 l=0.15
X119 VDPWR sky130_hd_div_by_2_4.Q a_27392_2979# VDPWR sky130_fd_pr__pfet_01v8_hvt ad=0.0864 pd=0.91 as=0.166 ps=1.8 w=0.64 l=0.15
X120 a_28146_1347# a_27631_1674# VDPWR VDPWR sky130_fd_pr__pfet_01v8_hvt ad=0.0882 pd=0.84 as=0.111 ps=1.37 w=0.42 l=0.15
X121 a_28544_1713# a_28324_1725# VGND VGND sky130_fd_pr__nfet_01v8 ad=0.0696 pd=0.765 as=0.121 ps=1.09 w=0.42 l=0.15
X122 VGND sky130_hd_div_by_2_2.Q a_27392_1891# VGND sky130_fd_pr__nfet_01v8 ad=0.0567 pd=0.69 as=0.109 ps=1.36 w=0.42 l=0.15
X123 VDPWR sky130_hd_ro32_nand_0.sky130_hd_inv_1_29.Y sky130_hd_ro32_nand_0.sky130_hd_inv_1_28.Y VDPWR sky130_fd_pr__pfet_01v8 ad=0.26 pd=2.52 as=0.135 ps=1.27 w=1 l=0.15
X124 VGND sky130_hd_ro32_nand_0.sky130_hd_inv_1_22.Y sky130_hd_ro32_nand_0.sky130_hd_inv_1_21.Y VGND sky130_fd_pr__nfet_01v8 ad=0.169 pd=1.82 as=0.0878 ps=0.92 w=0.65 l=0.15
X125 VDPWR sky130_hd_ro32_nand_0.sky130_hd_inv_1_26.Y sky130_hd_ro32_nand_0.sky130_hd_inv_1_25.Y VDPWR sky130_fd_pr__pfet_01v8 ad=0.26 pd=2.52 as=0.135 ps=1.27 w=1 l=0.15
X126 sky130_hd_ro32_nand_0.sky130_hd_inv_1_30.Y sky130_hd_ro32_nand_0.sky130_hd_inv_1_31.Y VGND VGND sky130_fd_pr__nfet_01v8 ad=0.0878 pd=0.92 as=0.169 ps=1.82 w=0.65 l=0.15
X127 VGND sky130_hd_ro32_nand_0.sky130_hd_inv_1_19.Y sky130_hd_ro32_nand_0.sky130_hd_inv_1_18.Y VGND sky130_fd_pr__nfet_01v8 ad=0.169 pd=1.82 as=0.0878 ps=0.92 w=0.65 l=0.15
X128 a_28340_2257# a_27558_1891# a_28256_2257# VDPWR sky130_fd_pr__pfet_01v8_hvt ad=0.0882 pd=0.84 as=0.0567 ps=0.69 w=0.42 l=0.15
X129 sky130_hd_ro32_nand_0.sky130_hd_inv_1_3.Y sky130_hd_ro32_nand_0.sky130_hd_inv_1_4.Y VDPWR VDPWR sky130_fd_pr__pfet_01v8 ad=0.135 pd=1.27 as=0.26 ps=2.52 w=1 l=0.15
X130 a_28324_1725# a_28188_1565# a_27903_1579# VDPWR sky130_fd_pr__pfet_01v8_hvt ad=0.109 pd=1.08 as=0.0567 ps=0.69 w=0.42 l=0.15
X131 a_27536_1321# a_27631_1674# VGND VGND sky130_fd_pr__nfet_01v8 ad=0.109 pd=1.36 as=0.097 ps=0.975 w=0.42 l=0.15
X132 a_28324_2813# a_28195_2557# a_27903_2667# VGND sky130_fd_pr__special_nfet_01v8 ad=0.0989 pd=0.995 as=0.0684 ps=0.74 w=0.36 l=0.15
X133 ua[0] sky130_hd_ro32_nand_0.sky130_hd_inv_1_1.Y VDPWR VDPWR sky130_fd_pr__pfet_01v8 ad=0.135 pd=1.27 as=0.26 ps=2.52 w=1 l=0.15
X134 a_27536_1321# a_27631_1674# VDPWR VDPWR sky130_fd_pr__pfet_01v8_hvt ad=0.166 pd=1.8 as=0.154 ps=1.34 w=0.64 l=0.15
X135 VGND sky130_hd_ro32_nand_0.sky130_hd_inv_1_8.Y sky130_hd_ro32_nand_0.sky130_hd_inv_1_7.Y VGND sky130_fd_pr__nfet_01v8 ad=0.169 pd=1.82 as=0.0878 ps=0.92 w=0.65 l=0.15
X136 VDPWR sky130_hd_ro32_nand_0.sky130_hd_inv_1_12.Y sky130_hd_ro32_nand_0.sky130_hd_inv_1_11.Y VDPWR sky130_fd_pr__pfet_01v8 ad=0.26 pd=2.52 as=0.135 ps=1.27 w=1 l=0.15
X137 VGND sky130_hd_ro32_nand_0.sky130_hd_inv_1_5.Y sky130_hd_ro32_nand_0.sky130_hd_inv_1_4.Y VGND sky130_fd_pr__nfet_01v8 ad=0.169 pd=1.82 as=0.0878 ps=0.92 w=0.65 l=0.15
X138 VDPWR sky130_hd_ro32_nand_0.sky130_hd_inv_1_9.Y sky130_hd_ro32_nand_0.sky130_hd_inv_1_8.Y VDPWR sky130_fd_pr__pfet_01v8 ad=0.26 pd=2.52 as=0.135 ps=1.27 w=1 l=0.15
X139 sky130_hd_ro32_nand_0.sky130_hd_inv_1_14.Y sky130_hd_ro32_nand_0.sky130_hd_inv_1_15.Y VGND VGND sky130_fd_pr__nfet_01v8 ad=0.0878 pd=0.92 as=0.169 ps=1.82 w=0.65 l=0.15
X140 VGND sky130_hd_ro32_nand_0.sky130_hd_inv_1_2.Y sky130_hd_ro32_nand_0.sky130_hd_inv_1_1.Y VGND sky130_fd_pr__nfet_01v8 ad=0.169 pd=1.82 as=0.0878 ps=0.92 w=0.65 l=0.15
X141 VDPWR sky130_hd_div_by_2_4.Qb a_28742_3901# VDPWR sky130_fd_pr__pfet_01v8_hvt ad=0.109 pd=1.36 as=0.0578 ps=0.695 w=0.42 l=0.15
X142 a_28123_1713# a_27631_1674# VGND VGND sky130_fd_pr__nfet_01v8 ad=0.066 pd=0.745 as=0.109 ps=1.36 w=0.42 l=0.15
X143 sky130_hd_ro32_nand_0.sky130_hd_inv_1_11.Y sky130_hd_ro32_nand_0.sky130_hd_inv_1_12.Y VGND VGND sky130_fd_pr__nfet_01v8 ad=0.0878 pd=0.92 as=0.169 ps=1.82 w=0.65 l=0.15
X144 VDPWR a_27536_3497# sky130_hd_div_by_2_4.Qb VDPWR sky130_fd_pr__pfet_01v8_hvt ad=0.154 pd=1.34 as=0.26 ps=2.52 w=1 l=0.15
X145 VDPWR a_28395_2712# a_28324_2813# VDPWR sky130_fd_pr__pfet_01v8_hvt ad=0.179 pd=1.26 as=0.109 ps=1.08 w=0.75 l=0.15
X146 VGND sky130_hd_ro32_nand_0.sky130_hd_inv_1_6.Y sky130_hd_ro32_nand_0.sky130_hd_inv_1_5.Y VGND sky130_fd_pr__nfet_01v8 ad=0.169 pd=1.82 as=0.0878 ps=0.92 w=0.65 l=0.15
X147 a_28188_1565# sky130_hd_div_by_2_1.CLK VDPWR VDPWR sky130_fd_pr__pfet_01v8_hvt ad=0.166 pd=1.8 as=0.0864 ps=0.91 w=0.64 l=0.15
X148 a_27631_2762# a_27903_2667# VGND VGND sky130_fd_pr__nfet_01v8 ad=0.169 pd=1.82 as=0.0878 ps=0.92 w=0.65 l=0.15
X149 VDPWR sky130_hd_ro32_nand_0.sky130_hd_nand2_1_0.Y sky130_hd_ro32_nand_0.sky130_hd_inv_1_31.Y VDPWR sky130_fd_pr__pfet_01v8 ad=0.26 pd=2.52 as=0.135 ps=1.27 w=1 l=0.15
X150 VDPWR sky130_hd_ro32_nand_0.sky130_hd_inv_1_30.Y sky130_hd_ro32_nand_0.sky130_hd_inv_1_29.Y VDPWR sky130_fd_pr__pfet_01v8 ad=0.26 pd=2.52 as=0.135 ps=1.27 w=1 l=0.15
X151 VGND sky130_hd_ro32_nand_0.sky130_hd_inv_1_23.Y sky130_hd_ro32_nand_0.sky130_hd_inv_1_22.Y VGND sky130_fd_pr__nfet_01v8 ad=0.169 pd=1.82 as=0.0878 ps=0.92 w=0.65 l=0.15
X152 VGND a_27536_1321# sky130_hd_div_by_2_1.Qb VGND sky130_fd_pr__nfet_01v8 ad=0.097 pd=0.975 as=0.169 ps=1.82 w=0.65 l=0.15
X153 VDPWR sky130_hd_ro32_nand_0.sky130_hd_inv_1_27.Y sky130_hd_ro32_nand_0.sky130_hd_inv_1_26.Y VDPWR sky130_fd_pr__pfet_01v8 ad=0.26 pd=2.52 as=0.135 ps=1.27 w=1 l=0.15
X154 sky130_hd_ro32_nand_0.sky130_hd_inv_1_31.Y sky130_hd_ro32_nand_0.sky130_hd_nand2_1_0.Y VGND VGND sky130_fd_pr__nfet_01v8 ad=0.0878 pd=0.92 as=0.169 ps=1.82 w=0.65 l=0.15
X155 VGND a_28424_3247# a_28382_2979# VGND sky130_fd_pr__nfet_01v8 ad=0.109 pd=1.36 as=0.066 ps=0.745 w=0.42 l=0.15
X156 sky130_hd_ro32_nand_0.sky130_hd_inv_1_29.Y sky130_hd_ro32_nand_0.sky130_hd_inv_1_30.Y VGND VGND sky130_fd_pr__nfet_01v8 ad=0.0878 pd=0.92 as=0.169 ps=1.82 w=0.65 l=0.15
X157 VGND a_28424_2159# a_28382_1891# VGND sky130_fd_pr__nfet_01v8 ad=0.109 pd=1.36 as=0.066 ps=0.745 w=0.42 l=0.15
X158 sky130_hd_ro32_nand_0.sky130_hd_inv_1_1.Y sky130_hd_ro32_nand_0.sky130_hd_inv_1_2.Y VDPWR VDPWR sky130_fd_pr__pfet_01v8 ad=0.135 pd=1.27 as=0.26 ps=2.52 w=1 l=0.15
X159 VGND a_28188_3741# a_28195_3645# VGND sky130_fd_pr__nfet_01v8 ad=0.0567 pd=0.69 as=0.109 ps=1.36 w=0.42 l=0.15
X160 VDPWR ua[0] sky130_hd_ro32_nand_0.sky130_hd_nand2_1_0.Y VDPWR sky130_fd_pr__pfet_01v8 ad=0.26 pd=2.52 as=0.135 ps=1.27 w=1 l=0.15
X161 sky130_hd_ro32_nand_0.sky130_hd_inv_1_5.Y sky130_hd_ro32_nand_0.sky130_hd_inv_1_6.Y VDPWR VDPWR sky130_fd_pr__pfet_01v8 ad=0.135 pd=1.27 as=0.26 ps=2.52 w=1 l=0.15
X162 sky130_hd_ro32_nand_0.sky130_hd_inv_1_18.Y sky130_hd_ro32_nand_0.sky130_hd_inv_1_19.Y VGND VGND sky130_fd_pr__nfet_01v8 ad=0.0878 pd=0.92 as=0.169 ps=1.82 w=0.65 l=0.15
X163 a_28742_1725# a_28195_1469# a_28395_1624# VDPWR sky130_fd_pr__pfet_01v8_hvt ad=0.0578 pd=0.695 as=0.0683 ps=0.745 w=0.42 l=0.15
X164 VDPWR sky130_hd_ro32_nand_0.sky130_hd_inv_1_13.Y sky130_hd_ro32_nand_0.sky130_hd_inv_1_12.Y VDPWR sky130_fd_pr__pfet_01v8 ad=0.26 pd=2.52 as=0.135 ps=1.27 w=1 l=0.15
X165 sky130_hd_ro32_nand_0.sky130_hd_inv_1_15.Y sky130_hd_ro32_nand_0.sky130_hd_inv_1_16.Y VGND VGND sky130_fd_pr__nfet_01v8 ad=0.0878 pd=0.92 as=0.169 ps=1.82 w=0.65 l=0.15
X166 sky130_hd_ro32_nand_0.sky130_hd_inv_1_22.Y sky130_hd_ro32_nand_0.sky130_hd_inv_1_23.Y VDPWR VDPWR sky130_fd_pr__pfet_01v8 ad=0.135 pd=1.27 as=0.26 ps=2.52 w=1 l=0.15
X167 sky130_hd_ro32_nand_0.sky130_hd_inv_1_19.Y sky130_hd_ro32_nand_0.sky130_hd_inv_1_20.Y VDPWR VDPWR sky130_fd_pr__pfet_01v8 ad=0.135 pd=1.27 as=0.26 ps=2.52 w=1 l=0.15
X168 VDPWR sky130_hd_ro32_nand_0.sky130_hd_inv_1_17.Y sky130_hd_ro32_nand_0.sky130_hd_inv_1_16.Y VDPWR sky130_fd_pr__pfet_01v8 ad=0.26 pd=2.52 as=0.135 ps=1.27 w=1 l=0.15
X169 VGND sky130_hd_ro32_nand_0.sky130_hd_inv_1_10.Y sky130_hd_ro32_nand_0.sky130_hd_inv_1_9.Y VGND sky130_fd_pr__nfet_01v8 ad=0.169 pd=1.82 as=0.0878 ps=0.92 w=0.65 l=0.15
X170 VDPWR sky130_hd_ro32_nand_0.sky130_hd_inv_1_14.Y sky130_hd_ro32_nand_0.sky130_hd_inv_1_13.Y VDPWR sky130_fd_pr__pfet_01v8 ad=0.26 pd=2.52 as=0.135 ps=1.27 w=1 l=0.15
X171 sky130_hd_ro32_nand_0.sky130_hd_inv_1_16.Y sky130_hd_ro32_nand_0.sky130_hd_inv_1_17.Y VGND VGND sky130_fd_pr__nfet_01v8 ad=0.0878 pd=0.92 as=0.169 ps=1.82 w=0.65 l=0.15
X172 VGND a_28395_3800# a_28324_3901# VGND sky130_fd_pr__nfet_01v8 ad=0.121 pd=1.09 as=0.0989 ps=0.995 w=0.64 l=0.15
X173 a_27831_3345# a_27558_2979# a_27746_2979# VDPWR sky130_fd_pr__pfet_01v8_hvt ad=0.0683 pd=0.745 as=0.0578 ps=0.695 w=0.42 l=0.15
X174 a_28188_1565# sky130_hd_div_by_2_1.CLK VGND VGND sky130_fd_pr__nfet_01v8 ad=0.109 pd=1.36 as=0.0567 ps=0.69 w=0.42 l=0.15
X175 VGND a_27631_1674# ua[1] VGND sky130_fd_pr__nfet_01v8 ad=0.0878 pd=0.92 as=0.169 ps=1.82 w=0.65 l=0.15
X176 VDPWR a_28424_3247# a_28855_3301# VDPWR sky130_fd_pr__pfet_01v8_hvt ad=0.154 pd=1.34 as=0.166 ps=1.8 w=0.64 l=0.15
X177 VGND sky130_hd_ro32_nand_0.sky130_hd_inv_1_24.Y sky130_hd_ro32_nand_0.sky130_hd_inv_1_23.Y VGND sky130_fd_pr__nfet_01v8 ad=0.169 pd=1.82 as=0.0878 ps=0.92 w=0.65 l=0.15
X178 VDPWR a_27999_3091# a_27926_3345# VDPWR sky130_fd_pr__pfet_01v8_hvt ad=0.179 pd=1.26 as=0.0767 ps=0.785 w=0.42 l=0.15
X179 a_27926_3345# a_27392_2979# a_27831_3345# VDPWR sky130_fd_pr__pfet_01v8_hvt ad=0.0767 pd=0.785 as=0.0683 ps=0.745 w=0.42 l=0.15
X180 VDPWR sky130_hd_ro32_nand_0.sky130_hd_inv_1_3.Y sky130_hd_ro32_nand_0.sky130_hd_inv_1_2.Y VDPWR sky130_fd_pr__pfet_01v8 ad=0.26 pd=2.52 as=0.135 ps=1.27 w=1 l=0.15
X181 a_27903_3755# a_28195_3645# a_28146_3523# VDPWR sky130_fd_pr__pfet_01v8_hvt ad=0.0567 pd=0.69 as=0.0882 ps=0.84 w=0.42 l=0.15
X182 a_27903_1579# a_28188_1565# a_28123_1713# VGND sky130_fd_pr__special_nfet_01v8 ad=0.0684 pd=0.74 as=0.066 ps=0.745 w=0.36 l=0.15
X183 VGND sky130_hd_div_by_2_2.Qb a_28742_2813# VGND sky130_fd_pr__nfet_01v8 ad=0.109 pd=1.36 as=0.0813 ps=0.83 w=0.42 l=0.15
X184 sky130_hd_ro32_nand_0.sky130_hd_inv_1_2.Y sky130_hd_ro32_nand_0.sky130_hd_inv_1_3.Y VGND VGND sky130_fd_pr__nfet_01v8 ad=0.0878 pd=0.92 as=0.169 ps=1.82 w=0.65 l=0.15
X185 a_27631_3850# a_27903_3755# VDPWR VDPWR sky130_fd_pr__pfet_01v8_hvt ad=0.27 pd=2.54 as=0.135 ps=1.27 w=1 l=0.15
X186 sky130_hd_ro32_nand_0.sky130_hd_inv_1_6.Y sky130_hd_ro32_nand_0.sky130_hd_inv_1_7.Y VDPWR VDPWR sky130_fd_pr__pfet_01v8 ad=0.135 pd=1.27 as=0.26 ps=2.52 w=1 l=0.15
X187 a_28146_2435# a_27631_2762# VDPWR VDPWR sky130_fd_pr__pfet_01v8_hvt ad=0.0882 pd=0.84 as=0.111 ps=1.37 w=0.42 l=0.15
X188 a_28544_2801# a_28324_2813# VGND VGND sky130_fd_pr__nfet_01v8 ad=0.0696 pd=0.765 as=0.121 ps=1.09 w=0.42 l=0.15
X189 sky130_hd_ro32_nand_0.sky130_hd_inv_1_23.Y sky130_hd_ro32_nand_0.sky130_hd_inv_1_24.Y VGND VGND sky130_fd_pr__nfet_01v8 ad=0.0878 pd=0.92 as=0.169 ps=1.82 w=0.65 l=0.15
X190 a_28340_3345# a_27558_2979# a_28256_3345# VDPWR sky130_fd_pr__pfet_01v8_hvt ad=0.0882 pd=0.84 as=0.0567 ps=0.69 w=0.42 l=0.15
X191 VDPWR sky130_hd_ro32_nand_0.sky130_hd_inv_1_18.Y sky130_hd_ro32_nand_0.sky130_hd_inv_1_17.Y VDPWR sky130_fd_pr__pfet_01v8 ad=0.26 pd=2.52 as=0.135 ps=1.27 w=1 l=0.15
X192 a_28324_3901# a_28195_3645# a_27903_3755# VGND sky130_fd_pr__special_nfet_01v8 ad=0.0989 pd=0.995 as=0.0684 ps=0.74 w=0.36 l=0.15
X193 a_28324_2813# a_28188_2653# a_27903_2667# VDPWR sky130_fd_pr__pfet_01v8_hvt ad=0.109 pd=1.08 as=0.0567 ps=0.69 w=0.42 l=0.15
X194 a_27536_2409# a_27631_2762# VGND VGND sky130_fd_pr__nfet_01v8 ad=0.109 pd=1.36 as=0.097 ps=0.975 w=0.42 l=0.15
X195 sky130_hd_div_by_2_3.Q a_28424_3247# VDPWR VDPWR sky130_fd_pr__pfet_01v8_hvt ad=0.26 pd=2.52 as=0.135 ps=1.27 w=1 l=0.15
X196 sky130_hd_ro32_nand_0.sky130_hd_inv_1_27.Y sky130_hd_ro32_nand_0.sky130_hd_inv_1_28.Y VDPWR VDPWR sky130_fd_pr__pfet_01v8 ad=0.135 pd=1.27 as=0.26 ps=2.52 w=1 l=0.15
X197 VDPWR sky130_hd_ro32_nand_0.sky130_hd_inv_1_15.Y sky130_hd_ro32_nand_0.sky130_hd_inv_1_14.Y VDPWR sky130_fd_pr__pfet_01v8 ad=0.26 pd=2.52 as=0.135 ps=1.27 w=1 l=0.15
X198 sky130_hd_ro32_nand_0.sky130_hd_inv_1_20.Y sky130_hd_ro32_nand_0.sky130_hd_inv_1_21.Y VGND VGND sky130_fd_pr__nfet_01v8 ad=0.0878 pd=0.92 as=0.169 ps=1.82 w=0.65 l=0.15
X199 VGND sky130_hd_ro32_nand_0.sky130_hd_inv_1_11.Y sky130_hd_ro32_nand_0.sky130_hd_inv_1_10.Y VGND sky130_fd_pr__nfet_01v8 ad=0.169 pd=1.82 as=0.0878 ps=0.92 w=0.65 l=0.15
X200 a_27558_2979# a_27392_2979# VGND VGND sky130_fd_pr__nfet_01v8 ad=0.109 pd=1.36 as=0.0567 ps=0.69 w=0.42 l=0.15