* NGSPICE file created from tt_um_analog_RO_parax.ext - technology: sky130A

.subckt tt_um_analog_RO_parax clk rst_n ua[2] ua[3] ua[4] ua[5] ua[6] ua[7] ui_in[0]
+ ui_in[1] ui_in[2] ui_in[6] uio_in[0] uio_in[1] uio_in[2] uio_in[3] uio_in[4] uio_in[5]
+ uio_in[6] uio_in[7] uio_oe[0] uio_oe[1] uio_oe[2] uio_oe[3] uio_oe[4] uio_oe[5]
+ uio_oe[6] uio_oe[7] uio_out[0] uio_out[1] uio_out[2] uio_out[3] uio_out[4] uio_out[5]
+ uio_out[6] uio_out[7] uo_out[1] uo_out[2] uo_out[3] uo_out[4] uo_out[5] uo_out[6]
+ VGND ua[1] ui_in[3] ui_in[5] uo_out[0] ui_in[4] ena ua[0] ui_in[7] VDPWR uo_out[7]
X0 a_28324_3901# a_28188_3741# a_27903_3755# VDPWR sky130_fd_pr__pfet_01v8_hvt ad=0.109 pd=1.08 as=0.0567 ps=0.69 w=0.42 l=0.15
X1 a_28123_3889# a_27631_3850# uo_out[7] uo_out[7] sky130_fd_pr__nfet_01v8 ad=0.066 pd=0.745 as=0.109 ps=1.36 w=0.42 l=0.15
X2 sky130_hd_ro33_nand_0.sky130_hd_inv_1_30.Y sky130_hd_ro33_nand_0.sky130_hd_inv_1_31.Y uo_out[7] uo_out[7] sky130_fd_pr__nfet_01v8 ad=0.0878 pd=0.92 as=0.169 ps=1.82 w=0.65 l=0.15
X3 uo_out[7] sky130_hd_ro47_nand_0.sky130_hd_inv_1_30.Y sky130_hd_ro47_nand_0.sky130_hd_inv_1_29.Y uo_out[7] sky130_fd_pr__nfet_01v8 ad=0.169 pd=1.82 as=0.0878 ps=0.92 w=0.65 l=0.15
X4 VDPWR sky130_hd_ro33_nand_0.sky130_hd_nand2_1_0.Y sky130_hd_ro33_nand_0.sky130_hd_inv_1_31.Y VDPWR sky130_fd_pr__pfet_01v8 ad=0.26 pd=2.52 as=0.135 ps=1.27 w=1 l=0.15
X5 uo_out[7] sky130_hd_ro47_nand_0.sky130_hd_inv_1_10.A sky130_hd_ro47_nand_0.sky130_hd_inv_1_11.A uo_out[7] sky130_fd_pr__nfet_01v8 ad=0.169 pd=1.82 as=0.0878 ps=0.92 w=0.65 l=0.15
X6 uo_out[7] a_28424_3247# a_28855_3301# uo_out[7] sky130_fd_pr__nfet_01v8 ad=0.097 pd=0.975 as=0.109 ps=1.36 w=0.42 l=0.15
X7 uo_out[7] sky130_hd_ro32_nand_0.sky130_hd_inv_1_3.Y sky130_hd_ro32_nand_0.sky130_hd_inv_1_2.Y uo_out[7] sky130_fd_pr__nfet_01v8 ad=0.169 pd=1.82 as=0.0878 ps=0.92 w=0.65 l=0.15
X8 sky130_hd_ro33_nand_0.sky130_hd_inv_1_23.Y sky130_hd_ro33_nand_0.sky130_hd_inv_1_24.Y uo_out[7] uo_out[7] sky130_fd_pr__nfet_01v8 ad=0.0878 pd=0.92 as=0.169 ps=1.82 w=0.65 l=0.15
X9 sky130_hd_xor_block_3.sky130_hd_xor2_1_0.B sky130_hd_xor_block_3.sky130_hd_inv_1_3.A VDPWR VDPWR sky130_fd_pr__pfet_01v8 ad=0.135 pd=1.27 as=0.26 ps=2.52 w=1 l=0.15
X10 sky130_hd_ro41_nand_0.sky130_hd_inv_1_34.Y sky130_hd_ro41_nand_0.sky130_hd_inv_1_35.Y VDPWR VDPWR sky130_fd_pr__pfet_01v8 ad=0.135 pd=1.27 as=0.26 ps=2.52 w=1 l=0.15
X11 sky130_hd_ro41_nand_0.sky130_hd_inv_1_34.Y sky130_hd_ro41_nand_0.sky130_hd_inv_1_35.Y uo_out[7] uo_out[7] sky130_fd_pr__nfet_01v8 ad=0.0878 pd=0.92 as=0.169 ps=1.82 w=0.65 l=0.15
X12 a_27746_1891# sky130_hd_div_by_2_0.Qb VDPWR VDPWR sky130_fd_pr__pfet_01v8_hvt ad=0.0578 pd=0.695 as=0.109 ps=1.36 w=0.42 l=0.15
X13 uo_out[7] sky130_hd_xor_block_3.XOROUT sky130_hd_xor_block_2.sky130_hd_inv_1_3.A uo_out[7] sky130_fd_pr__nfet_01v8 ad=0.169 pd=1.82 as=0.0878 ps=0.92 w=0.65 l=0.15
X14 sky130_hd_ro37_nand_0.sky130_hd_inv_1_1.A sky130_hd_ro37_nand_0.sky130_hd_inv_1_8.Y uo_out[7] uo_out[7] sky130_fd_pr__nfet_01v8 ad=0.0878 pd=0.92 as=0.169 ps=1.82 w=0.65 l=0.15
X15 sky130_hd_xor_block_1.XOROUT sky130_hd_xor_block_1.sky130_hd_xor2_1_0.B a_23186_31740# uo_out[7] sky130_fd_pr__nfet_01v8 ad=0.25 pd=1.42 as=0.0878 ps=0.92 w=0.65 l=0.15
X16 sky130_hd_ro33_nand_0.sky130_hd_inv_1_14.Y sky130_hd_ro33_nand_0.sky130_hd_inv_1_15.Y uo_out[7] uo_out[7] sky130_fd_pr__nfet_01v8 ad=0.0878 pd=0.92 as=0.169 ps=1.82 w=0.65 l=0.15
X17 a_19695_33682# sky130_hd_xor_block_3.sky130_hd_xor2_1_0.A uo_out[7] uo_out[7] sky130_fd_pr__nfet_01v8 ad=0.0878 pd=0.92 as=0.0878 ps=0.92 w=0.65 l=0.15
X18 VDPWR sky130_hd_ro37_nand_0.sky130_hd_inv_1_33.Y sky130_hd_ro37_nand_0.sky130_hd_inv_1_32.Y VDPWR sky130_fd_pr__pfet_01v8 ad=0.26 pd=2.52 as=0.135 ps=1.27 w=1 l=0.15
X19 a_7207_31915# ui_in[4] uo_out[7] uo_out[7] sky130_fd_pr__nfet_01v8 ad=0.0878 pd=0.92 as=0.169 ps=1.82 w=0.65 l=0.15
X20 VDPWR sky130_hd_ro53_nand_0.sky130_hd_inv_1_51.Y sky130_hd_ro53_nand_0.sky130_hd_inv_1_50.Y VDPWR sky130_fd_pr__pfet_01v8 ad=0.26 pd=2.52 as=0.135 ps=1.27 w=1 l=0.15
X21 sky130_hd_ro33_nand_0.sky130_hd_inv_1_9.Y sky130_hd_ro33_nand_0.sky130_hd_inv_1_10.Y VDPWR VDPWR sky130_fd_pr__pfet_01v8 ad=0.135 pd=1.27 as=0.26 ps=2.52 w=1 l=0.15
X22 VDPWR sky130_hd_xor_block_1.sky130_hd_inv_1_3.A sky130_hd_xor_block_1.sky130_hd_xor2_1_0.B VDPWR sky130_fd_pr__pfet_01v8 ad=0.26 pd=2.52 as=0.135 ps=1.27 w=1 l=0.15
X23 uo_out[7] a_24330_35537# a_24259_35563# uo_out[7] sky130_fd_pr__nfet_01v8 ad=0.121 pd=1.09 as=0.0989 ps=0.995 w=0.64 l=0.15
X24 VDPWR sky130_hd_ro41_nand_0.sky130_hd_inv_1_8.A sky130_hd_ro41_nand_0.sky130_hd_inv_1_9.A VDPWR sky130_fd_pr__pfet_01v8 ad=0.26 pd=2.52 as=0.135 ps=1.27 w=1 l=0.15
X25 uo_out[7] sky130_hd_ro41_nand_0.sky130_hd_inv_1_8.A sky130_hd_ro41_nand_0.sky130_hd_inv_1_9.A uo_out[7] sky130_fd_pr__nfet_01v8 ad=0.169 pd=1.82 as=0.0878 ps=0.92 w=0.65 l=0.15
X26 VDPWR sky130_hd_ro32_nand_0.sky130_hd_inv_1_7.Y sky130_hd_ro32_nand_0.sky130_hd_inv_1_6.Y VDPWR sky130_fd_pr__pfet_01v8 ad=0.26 pd=2.52 as=0.135 ps=1.27 w=1 l=0.15
X27 uo_out[7] a_28424_2159# a_28855_2213# uo_out[7] sky130_fd_pr__nfet_01v8 ad=0.097 pd=0.975 as=0.109 ps=1.36 w=0.42 l=0.15
X28 sky130_hd_ro53_nand_0.sky130_hd_inv_1_32.Y sky130_hd_ro53_nand_0.sky130_hd_inv_1_33.Y uo_out[7] uo_out[7] sky130_fd_pr__nfet_01v8 ad=0.0878 pd=0.92 as=0.169 ps=1.82 w=0.65 l=0.15
X29 sky130_hd_ro47_nand_0.sky130_hd_inv_1_33.Y sky130_hd_ro47_nand_0.sky130_hd_inv_1_34.Y VDPWR VDPWR sky130_fd_pr__pfet_01v8 ad=0.135 pd=1.27 as=0.26 ps=2.52 w=1 l=0.15
X30 VDPWR sky130_hd_ro53_nand_0.sky130_hd_inv_1_40.Y sky130_hd_ro53_nand_0.sky130_hd_inv_1_39.Y VDPWR sky130_fd_pr__pfet_01v8 ad=0.26 pd=2.52 as=0.135 ps=1.27 w=1 l=0.15
X31 a_27536_3497# a_27631_3850# VDPWR VDPWR sky130_fd_pr__pfet_01v8_hvt ad=0.166 pd=1.8 as=0.154 ps=1.34 w=0.64 l=0.15
X32 sky130_hd_ro37_nand_0.sky130_hd_inv_1_11.Y sky130_hd_ro37_nand_0.sky130_hd_inv_1_12.Y VDPWR VDPWR sky130_fd_pr__pfet_01v8 ad=0.135 pd=1.27 as=0.26 ps=2.52 w=1 l=0.15
X33 sky130_hd_ro53_nand_0.sky130_hd_inv_1_22.Y sky130_hd_ro53_nand_0.sky130_hd_inv_1_22.A VDPWR VDPWR sky130_fd_pr__pfet_01v8 ad=0.135 pd=1.27 as=0.26 ps=2.52 w=1 l=0.15
X34 a_27831_3345# a_27392_2979# a_27746_2979# uo_out[7] sky130_fd_pr__special_nfet_01v8 ad=0.0621 pd=0.705 as=0.0813 ps=0.83 w=0.36 l=0.15
X35 VDPWR sky130_hd_dfxtp_1_1.Q a_22612_35563# VDPWR sky130_fd_pr__pfet_01v8_hvt ad=0.109 pd=1.36 as=0.0578 ps=0.695 w=0.42 l=0.15
X36 uo_out[7] sky130_hd_xor_block_3.sky130_hd_inv_1_1.Y sky130_hd_xor_block_3.sky130_hd_xor2_1_0.A uo_out[7] sky130_fd_pr__nfet_01v8 ad=0.169 pd=1.82 as=0.0878 ps=0.92 w=0.65 l=0.15
X37 VDPWR sky130_hd_ro53_nand_0.sky130_hd_inv_1_24.Y sky130_hd_ro53_nand_0.sky130_hd_inv_1_13.A VDPWR sky130_fd_pr__pfet_01v8 ad=0.26 pd=2.52 as=0.135 ps=1.27 w=1 l=0.15
X38 VDPWR sky130_hd_ro32_nand_0.sky130_hd_inv_1_4.Y sky130_hd_ro32_nand_0.sky130_hd_inv_1_3.Y VDPWR sky130_fd_pr__pfet_01v8 ad=0.26 pd=2.52 as=0.135 ps=1.27 w=1 l=0.15
X39 sky130_hd_ro32_nand_0.sky130_hd_inv_1_13.Y sky130_hd_ro32_nand_0.sky130_hd_inv_1_14.Y VDPWR VDPWR sky130_fd_pr__pfet_01v8 ad=0.135 pd=1.27 as=0.26 ps=2.52 w=1 l=0.15
X40 a_22936_31990# sky130_hd_xor_block_1.sky130_hd_xor2_1_0.B uo_out[7] uo_out[7] sky130_fd_pr__nfet_01v8 ad=0.0878 pd=0.92 as=0.169 ps=1.82 w=0.65 l=0.15
X41 uo_out[7] sky130_hd_xor_block_0.XORB sky130_hd_xor_block_0.sky130_hd_inv_1_1.Y uo_out[7] sky130_fd_pr__nfet_01v8 ad=0.169 pd=1.82 as=0.0878 ps=0.92 w=0.65 l=0.15
X42 sky130_hd_ro47_nand_0.sky130_hd_inv_1_36.Y sky130_hd_ro47_nand_0.sky130_hd_inv_1_37.Y VDPWR VDPWR sky130_fd_pr__pfet_01v8 ad=0.135 pd=1.27 as=0.26 ps=2.52 w=1 l=0.15
X43 sky130_hd_ro32_nand_0.sky130_hd_inv_1_6.Y sky130_hd_ro32_nand_0.sky130_hd_inv_1_7.Y uo_out[7] uo_out[7] sky130_fd_pr__nfet_01v8 ad=0.0878 pd=0.92 as=0.169 ps=1.82 w=0.65 l=0.15
X44 sky130_hd_ro33_nand_0.sky130_hd_inv_1_27.Y sky130_hd_ro33_nand_0.sky130_hd_inv_1_28.Y VDPWR VDPWR sky130_fd_pr__pfet_01v8 ad=0.135 pd=1.27 as=0.26 ps=2.52 w=1 l=0.15
X45 uo_out[7] sky130_hd_ro47_nand_0.sky130_hd_inv_1_13.A sky130_hd_ro47_nand_0.sky130_hd_inv_1_14.A uo_out[7] sky130_fd_pr__nfet_01v8 ad=0.169 pd=1.82 as=0.0878 ps=0.92 w=0.65 l=0.15
X46 VDPWR sky130_hd_ro32_nand_0.sky130_hd_inv_1_1.Y ua[0] VDPWR sky130_fd_pr__pfet_01v8 ad=0.26 pd=2.52 as=0.135 ps=1.27 w=1 l=0.15
X47 uo_out[7] sky130_hd_ro53_nand_0.sky130_hd_inv_1_47.Y sky130_hd_ro53_nand_0.sky130_hd_inv_1_46.Y uo_out[7] sky130_fd_pr__nfet_01v8 ad=0.169 pd=1.82 as=0.0878 ps=0.92 w=0.65 l=0.15
X48 a_27831_2257# a_27392_1891# a_27746_1891# uo_out[7] sky130_fd_pr__special_nfet_01v8 ad=0.0621 pd=0.705 as=0.0813 ps=0.83 w=0.36 l=0.15
X49 a_27957_2979# a_27558_2979# a_27831_3345# uo_out[7] sky130_fd_pr__special_nfet_01v8 ad=0.0696 pd=0.765 as=0.0621 ps=0.705 w=0.36 l=0.15
X50 VDPWR sky130_hd_ro41_nand_0.sky130_hd_inv_1_26.Y sky130_hd_ro41_nand_0.sky130_hd_inv_1_25.Y VDPWR sky130_fd_pr__pfet_01v8 ad=0.26 pd=2.52 as=0.135 ps=1.27 w=1 l=0.15
X51 VDPWR sky130_hd_ro53_nand_0.sky130_hd_inv_1_48.Y sky130_hd_ro53_nand_0.sky130_hd_inv_1_47.Y VDPWR sky130_fd_pr__pfet_01v8 ad=0.26 pd=2.52 as=0.135 ps=1.27 w=1 l=0.15
X52 sky130_hd_ro53_nand_0.sky130_hd_inv_1_41.Y sky130_hd_ro53_nand_0.sky130_hd_inv_1_41.A uo_out[7] uo_out[7] sky130_fd_pr__nfet_01v8 ad=0.0878 pd=0.92 as=0.169 ps=1.82 w=0.65 l=0.15
X53 sky130_hd_xor_block_2.XOROUT a_21179_33268# a_21429_33268# VDPWR sky130_fd_pr__pfet_01v8 ad=0.3 pd=2.6 as=0.26 ps=2.52 w=1 l=0.15
X54 VDPWR sky130_hd_ro37_nand_0.sky130_hd_inv_1_30.Y sky130_hd_ro37_nand_0.sky130_hd_inv_1_29.Y VDPWR sky130_fd_pr__pfet_01v8 ad=0.26 pd=2.52 as=0.135 ps=1.27 w=1 l=0.15
X55 uo_out[7] sky130_hd_ro41_nand_0.sky130_hd_inv_1_26.Y sky130_hd_ro41_nand_0.sky130_hd_inv_1_25.Y uo_out[7] sky130_fd_pr__nfet_01v8 ad=0.169 pd=1.82 as=0.0878 ps=0.92 w=0.65 l=0.15
X56 sky130_hd_ro33_nand_0.sky130_hd_inv_1_6.Y sky130_hd_ro33_nand_0.sky130_hd_inv_1_7.Y VDPWR VDPWR sky130_fd_pr__pfet_01v8 ad=0.135 pd=1.27 as=0.26 ps=2.52 w=1 l=0.15
X57 sky130_hd_ro53_nand_0.sky130_hd_inv_1_14.A sky130_hd_ro53_nand_0.sky130_hd_inv_1_13.A VDPWR VDPWR sky130_fd_pr__pfet_01v8 ad=0.135 pd=1.27 as=0.26 ps=2.52 w=1 l=0.15
X58 sky130_hd_ro37_nand_0.sky130_hd_inv_1_18.Y sky130_hd_ro37_nand_0.sky130_hd_inv_1_19.Y uo_out[7] uo_out[7] sky130_fd_pr__nfet_01v8 ad=0.0878 pd=0.92 as=0.169 ps=1.82 w=0.65 l=0.15
X59 sky130_hd_ro41_nand_0.sky130_hd_inv_1_35.Y sky130_hd_ro41_nand_0.sky130_hd_inv_1_36.Y VDPWR VDPWR sky130_fd_pr__pfet_01v8 ad=0.135 pd=1.27 as=0.26 ps=2.52 w=1 l=0.15
X60 a_22441_35929# a_22194_35563# VDPWR VDPWR sky130_fd_pr__pfet_01v8_hvt ad=0.0767 pd=0.785 as=0.179 ps=1.26 w=0.42 l=0.15
X61 VDPWR sky130_hd_xor_block_3.XORB sky130_hd_xor_block_3.sky130_hd_inv_1_1.Y VDPWR sky130_fd_pr__pfet_01v8 ad=0.26 pd=2.52 as=0.135 ps=1.27 w=1 l=0.15
X62 sky130_hd_ro41_nand_0.sky130_hd_inv_1_35.Y sky130_hd_ro41_nand_0.sky130_hd_inv_1_36.Y uo_out[7] uo_out[7] sky130_fd_pr__nfet_01v8 ad=0.0878 pd=0.92 as=0.169 ps=1.82 w=0.65 l=0.15
X63 sky130_hd_ro47_nand_0.sky130_hd_inv_1_30.Y sky130_hd_ro47_nand_0.sky130_hd_inv_1_31.Y VDPWR VDPWR sky130_fd_pr__pfet_01v8 ad=0.135 pd=1.27 as=0.26 ps=2.52 w=1 l=0.15
X64 sky130_hd_ro47_nand_0.sky130_hd_inv_1_10.A sky130_hd_ro47_nand_0.sky130_hd_inv_1_9.A VDPWR VDPWR sky130_fd_pr__pfet_01v8 ad=0.135 pd=1.27 as=0.26 ps=2.52 w=1 l=0.15
X65 sky130_hd_ro53_nand_0.sky130_hd_inv_1_26.Y sky130_hd_ro53_nand_0.sky130_hd_inv_1_27.Y VDPWR VDPWR sky130_fd_pr__pfet_01v8 ad=0.135 pd=1.27 as=0.26 ps=2.52 w=1 l=0.15
X66 uo_out[7] a_28188_1565# a_28195_1469# uo_out[7] sky130_fd_pr__nfet_01v8 ad=0.0567 pd=0.69 as=0.109 ps=1.36 w=0.42 l=0.15
X67 a_27746_2979# sky130_hd_div_by_2_3.Qb uo_out[7] uo_out[7] sky130_fd_pr__nfet_01v8 ad=0.0813 pd=0.83 as=0.109 ps=1.36 w=0.42 l=0.15
X68 a_24506_35929# a_24259_35563# VDPWR VDPWR sky130_fd_pr__pfet_01v8_hvt ad=0.0767 pd=0.785 as=0.179 ps=1.26 w=0.42 l=0.15
X69 sky130_hd_ro37_nand_0.sky130_hd_inv_1_8.Y sky130_hd_ro37_nand_0.sky130_hd_inv_1_9.Y VDPWR VDPWR sky130_fd_pr__pfet_01v8 ad=0.135 pd=1.27 as=0.26 ps=2.52 w=1 l=0.15
X70 a_27957_1891# a_27558_1891# a_27831_2257# uo_out[7] sky130_fd_pr__special_nfet_01v8 ad=0.0696 pd=0.765 as=0.0621 ps=0.705 w=0.36 l=0.15
X71 sky130_hd_ro33_nand_0.sky130_hd_inv_1_20.Y sky130_hd_ro33_nand_0.sky130_hd_inv_1_21.Y VDPWR VDPWR sky130_fd_pr__pfet_01v8 ad=0.135 pd=1.27 as=0.26 ps=2.52 w=1 l=0.15
X72 VDPWR sky130_hd_ro32_nand_0.sky130_hd_inv_1_28.Y sky130_hd_ro32_nand_0.sky130_hd_inv_1_27.Y VDPWR sky130_fd_pr__pfet_01v8 ad=0.26 pd=2.52 as=0.135 ps=1.27 w=1 l=0.15
X73 sky130_hd_ro47_nand_0.sky130_hd_inv_1_29.Y sky130_hd_ro47_nand_0.sky130_hd_inv_1_30.Y uo_out[7] uo_out[7] sky130_fd_pr__nfet_01v8 ad=0.0878 pd=0.92 as=0.169 ps=1.82 w=0.65 l=0.15
X74 sky130_hd_ro41_nand_0.sky130_hd_inv_1_4.A sky130_hd_ro41_nand_0.sky130_hd_inv_1_3.A VDPWR VDPWR sky130_fd_pr__pfet_01v8 ad=0.135 pd=1.27 as=0.26 ps=2.52 w=1 l=0.15
X75 sky130_hd_ro41_nand_0.sky130_hd_inv_1_4.A sky130_hd_ro41_nand_0.sky130_hd_inv_1_3.A uo_out[7] uo_out[7] sky130_fd_pr__nfet_01v8 ad=0.0878 pd=0.92 as=0.169 ps=1.82 w=0.65 l=0.15
X76 uo_out[7] sky130_hd_ro32_nand_0.sky130_hd_inv_1_18.Y sky130_hd_ro32_nand_0.sky130_hd_inv_1_17.Y uo_out[7] sky130_fd_pr__nfet_01v8 ad=0.169 pd=1.82 as=0.0878 ps=0.92 w=0.65 l=0.15
X77 a_22265_35537# a_22058_35537# a_22441_35929# VDPWR sky130_fd_pr__pfet_01v8_hvt ad=0.0683 pd=0.745 as=0.0767 ps=0.785 w=0.42 l=0.15
X78 sky130_hd_ro33_nand_0.sky130_hd_inv_1_24.Y sky130_hd_ro33_nand_0.sky130_hd_inv_1_25.Y VDPWR VDPWR sky130_fd_pr__pfet_01v8 ad=0.135 pd=1.27 as=0.26 ps=2.52 w=1 l=0.15
X79 VDPWR sky130_hd_ro33_nand_0.sky130_hd_inv_1_5.Y sky130_hd_ro33_nand_0.sky130_hd_inv_1_4.Y VDPWR sky130_fd_pr__pfet_01v8 ad=0.26 pd=2.52 as=0.135 ps=1.27 w=1 l=0.15
X80 a_23186_31740# sky130_hd_xor_block_1.sky130_hd_xor2_1_0.A uo_out[7] uo_out[7] sky130_fd_pr__nfet_01v8 ad=0.0878 pd=0.92 as=0.0878 ps=0.92 w=0.65 l=0.15
X81 VDPWR sky130_hd_ro41_nand_0.sky130_hd_inv_1_19.Y sky130_hd_ro41_nand_0.sky130_hd_inv_1_18.Y VDPWR sky130_fd_pr__pfet_01v8 ad=0.26 pd=2.52 as=0.135 ps=1.27 w=1 l=0.15
X82 uo_out[7] sky130_hd_ro47_nand_0.sky130_hd_inv_1_16.A sky130_hd_ro47_nand_0.sky130_hd_inv_1_16.Y uo_out[7] sky130_fd_pr__nfet_01v8 ad=0.169 pd=1.82 as=0.0878 ps=0.92 w=0.65 l=0.15
X83 VDPWR a_27631_2762# sky130_hd_div_by_2_2.Q VDPWR sky130_fd_pr__pfet_01v8_hvt ad=0.135 pd=1.27 as=0.26 ps=2.52 w=1 l=0.15
X84 uo_out[7] a_28395_1624# a_28324_1725# uo_out[7] sky130_fd_pr__nfet_01v8 ad=0.121 pd=1.09 as=0.0989 ps=0.995 w=0.64 l=0.15
X85 a_24330_35537# a_24123_35537# a_24506_35929# VDPWR sky130_fd_pr__pfet_01v8_hvt ad=0.0683 pd=0.745 as=0.0767 ps=0.785 w=0.42 l=0.15
X86 uo_out[7] sky130_hd_ro41_nand_0.sky130_hd_inv_1_19.Y sky130_hd_ro41_nand_0.sky130_hd_inv_1_18.Y uo_out[7] sky130_fd_pr__nfet_01v8 ad=0.169 pd=1.82 as=0.0878 ps=0.92 w=0.65 l=0.15
X87 VDPWR sky130_hd_ro32_nand_0.sky130_hd_inv_1_25.Y sky130_hd_ro32_nand_0.sky130_hd_inv_1_24.Y VDPWR sky130_fd_pr__pfet_01v8 ad=0.26 pd=2.52 as=0.135 ps=1.27 w=1 l=0.15
X88 a_24259_35563# a_24123_35537# a_23839_35537# VDPWR sky130_fd_pr__pfet_01v8_hvt ad=0.109 pd=1.08 as=0.0567 ps=0.69 w=0.42 l=0.15
X89 sky130_hd_ro37_nand_0.sky130_hd_inv_1_32.Y sky130_hd_ro37_nand_0.sky130_hd_inv_1_33.Y VDPWR VDPWR sky130_fd_pr__pfet_01v8 ad=0.135 pd=1.27 as=0.26 ps=2.52 w=1 l=0.15
X90 a_27746_1891# sky130_hd_div_by_2_0.Qb uo_out[7] uo_out[7] sky130_fd_pr__nfet_01v8 ad=0.0813 pd=0.83 as=0.109 ps=1.36 w=0.42 l=0.15
X91 uo_out[7] sky130_hd_ro53_nand_0.sky130_hd_inv_1_1.Y sky130_hd_xor_block_0.XORB uo_out[7] sky130_fd_pr__nfet_01v8 ad=0.169 pd=1.82 as=0.0878 ps=0.92 w=0.65 l=0.15
X92 uo_out[7] a_19445_33932# sky130_hd_xor_block_3.XOROUT uo_out[7] sky130_fd_pr__nfet_01v8 ad=0.208 pd=1.94 as=0.25 ps=1.42 w=0.65 l=0.15
X93 sky130_hd_ro37_nand_0.sky130_hd_inv_1_30.Y sky130_hd_ro37_nand_0.sky130_hd_inv_1_31.Y uo_out[7] uo_out[7] sky130_fd_pr__nfet_01v8 ad=0.0878 pd=0.92 as=0.169 ps=1.82 w=0.65 l=0.15
X94 sky130_hd_ro32_nand_0.sky130_hd_inv_1_27.Y sky130_hd_ro32_nand_0.sky130_hd_inv_1_28.Y uo_out[7] uo_out[7] sky130_fd_pr__nfet_01v8 ad=0.0878 pd=0.92 as=0.169 ps=1.82 w=0.65 l=0.15
X95 sky130_hd_ro53_nand_0.sky130_hd_inv_1_38.Y sky130_hd_ro53_nand_0.sky130_hd_inv_1_39.Y uo_out[7] uo_out[7] sky130_fd_pr__nfet_01v8 ad=0.0878 pd=0.92 as=0.169 ps=1.82 w=0.65 l=0.15
X96 sky130_hd_ro41_nand_0.sky130_hd_inv_1_29.Y sky130_hd_ro41_nand_0.sky130_hd_inv_1_29.A VDPWR VDPWR sky130_fd_pr__pfet_01v8 ad=0.135 pd=1.27 as=0.26 ps=2.52 w=1 l=0.15
X97 sky130_hd_ro47_nand_0.sky130_hd_inv_1_38.Y sky130_hd_ro47_nand_0.sky130_hd_inv_1_39.Y VDPWR VDPWR sky130_fd_pr__pfet_01v8 ad=0.135 pd=1.27 as=0.26 ps=2.52 w=1 l=0.15
X98 VDPWR sky130_hd_ro47_nand_0.sky130_hd_inv_1_11.A sky130_hd_ro47_nand_0.sky130_hd_inv_1_12.A VDPWR sky130_fd_pr__pfet_01v8 ad=0.26 pd=2.52 as=0.135 ps=1.27 w=1 l=0.15
X99 uo_out[7] sky130_hd_ro32_nand_0.sky130_hd_inv_1_15.Y sky130_hd_ro32_nand_0.sky130_hd_inv_1_14.Y uo_out[7] sky130_fd_pr__nfet_01v8 ad=0.169 pd=1.82 as=0.0878 ps=0.92 w=0.65 l=0.15
X100 uo_out[7] sky130_hd_xor_block_2.XORB sky130_hd_xor_block_2.sky130_hd_inv_1_1.Y uo_out[7] sky130_fd_pr__nfet_01v8 ad=0.169 pd=1.82 as=0.0878 ps=0.92 w=0.65 l=0.15
X101 sky130_hd_ro41_nand_0.sky130_hd_inv_1_29.Y sky130_hd_ro41_nand_0.sky130_hd_inv_1_29.A uo_out[7] uo_out[7] sky130_fd_pr__nfet_01v8 ad=0.0878 pd=0.92 as=0.169 ps=1.82 w=0.65 l=0.15
X102 VDPWR sky130_hd_ro32_nand_0.sky130_hd_inv_1_22.Y sky130_hd_ro32_nand_0.sky130_hd_inv_1_21.Y VDPWR sky130_fd_pr__pfet_01v8 ad=0.26 pd=2.52 as=0.135 ps=1.27 w=1 l=0.15
X103 sky130_hd_ro37_nand_0.sky130_hd_inv_1_17.Y sky130_hd_ro37_nand_0.sky130_hd_inv_1_18.Y VDPWR VDPWR sky130_fd_pr__pfet_01v8 ad=0.135 pd=1.27 as=0.26 ps=2.52 w=1 l=0.15
X104 sky130_hd_ro53_nand_0.sky130_hd_inv_1_39.Y sky130_hd_ro53_nand_0.sky130_hd_inv_1_40.Y VDPWR VDPWR sky130_fd_pr__pfet_01v8 ad=0.135 pd=1.27 as=0.26 ps=2.52 w=1 l=0.15
X105 VDPWR sky130_hd_ro33_nand_0.sky130_hd_inv_1_30.Y sky130_hd_ro33_nand_0.sky130_hd_inv_1_29.Y VDPWR sky130_fd_pr__pfet_01v8 ad=0.26 pd=2.52 as=0.135 ps=1.27 w=1 l=0.15
X106 sky130_hd_ro41_nand_0.sky130_hd_inv_1_32.Y sky130_hd_ro41_nand_0.sky130_hd_inv_1_33.Y VDPWR VDPWR sky130_fd_pr__pfet_01v8 ad=0.135 pd=1.27 as=0.26 ps=2.52 w=1 l=0.15
X107 sky130_hd_ro41_nand_0.sky130_hd_inv_1_32.Y sky130_hd_ro41_nand_0.sky130_hd_inv_1_33.Y uo_out[7] uo_out[7] sky130_fd_pr__nfet_01v8 ad=0.0878 pd=0.92 as=0.169 ps=1.82 w=0.65 l=0.15
X108 VDPWR sky130_hd_ro47_nand_0.sky130_hd_inv_1_7.A sky130_hd_ro47_nand_0.sky130_hd_inv_1_8.A VDPWR sky130_fd_pr__pfet_01v8 ad=0.26 pd=2.52 as=0.135 ps=1.27 w=1 l=0.15
X109 sky130_hd_ro32_nand_0.sky130_hd_inv_1_24.Y sky130_hd_ro32_nand_0.sky130_hd_inv_1_25.Y uo_out[7] uo_out[7] sky130_fd_pr__nfet_01v8 ad=0.0878 pd=0.92 as=0.169 ps=1.82 w=0.65 l=0.15
X110 sky130_hd_ro32_nand_0.sky130_hd_inv_1_30.Y sky130_hd_ro32_nand_0.sky130_hd_inv_1_31.Y VDPWR VDPWR sky130_fd_pr__pfet_01v8 ad=0.135 pd=1.27 as=0.26 ps=2.52 w=1 l=0.15
X111 sky130_hd_ro47_nand_0.sky130_hd_inv_1_13.A sky130_hd_ro47_nand_0.sky130_hd_inv_1_12.A VDPWR VDPWR sky130_fd_pr__pfet_01v8 ad=0.135 pd=1.27 as=0.26 ps=2.52 w=1 l=0.15
X112 sky130_hd_ro53_nand_0.sky130_hd_inv_1_13.A sky130_hd_ro53_nand_0.sky130_hd_inv_1_24.Y VDPWR VDPWR sky130_fd_pr__pfet_01v8 ad=0.135 pd=1.27 as=0.26 ps=2.52 w=1 l=0.15
X113 sky130_hd_ro37_nand_0.sky130_hd_inv_1_35.Y sky130_hd_ro37_nand_0.sky130_hd_nand2_1_0.Y uo_out[7] uo_out[7] sky130_fd_pr__nfet_01v8 ad=0.0878 pd=0.92 as=0.169 ps=1.82 w=0.65 l=0.15
X114 VDPWR sky130_hd_ro32_nand_0.sky130_hd_inv_1_19.Y sky130_hd_ro32_nand_0.sky130_hd_inv_1_18.Y VDPWR sky130_fd_pr__pfet_01v8 ad=0.26 pd=2.52 as=0.135 ps=1.27 w=1 l=0.15
X115 VDPWR sky130_hd_ro41_nand_0.sky130_hd_inv_1_28.Y sky130_hd_ro41_nand_0.sky130_hd_inv_1_27.Y VDPWR sky130_fd_pr__pfet_01v8 ad=0.26 pd=2.52 as=0.135 ps=1.27 w=1 l=0.15
X116 uo_out[7] sky130_hd_ro41_nand_0.sky130_hd_inv_1_28.Y sky130_hd_ro41_nand_0.sky130_hd_inv_1_27.Y uo_out[7] sky130_fd_pr__nfet_01v8 ad=0.169 pd=1.82 as=0.0878 ps=0.92 w=0.65 l=0.15
X117 VDPWR sky130_hd_ro47_nand_0.sky130_hd_inv_1_21.Y sky130_hd_ro47_nand_0.sky130_hd_inv_1_20.Y VDPWR sky130_fd_pr__pfet_01v8 ad=0.26 pd=2.52 as=0.135 ps=1.27 w=1 l=0.15
X118 sky130_hd_ro47_nand_0.sky130_hd_inv_1_14.A sky130_hd_ro47_nand_0.sky130_hd_inv_1_13.A uo_out[7] uo_out[7] sky130_fd_pr__nfet_01v8 ad=0.0878 pd=0.92 as=0.169 ps=1.82 w=0.65 l=0.15
X119 a_27999_3091# a_27831_3345# VDPWR VDPWR sky130_fd_pr__pfet_01v8_hvt ad=0.109 pd=1.08 as=0.179 ps=1.26 w=0.75 l=0.15
X120 sky130_hd_ro32_nand_0.sky130_hd_inv_1_21.Y sky130_hd_ro32_nand_0.sky130_hd_inv_1_22.Y uo_out[7] uo_out[7] sky130_fd_pr__nfet_01v8 ad=0.0878 pd=0.92 as=0.169 ps=1.82 w=0.65 l=0.15
X121 uo_out[7] sky130_hd_ro33_nand_0.sky130_hd_inv_1_11.Y sky130_hd_ro33_nand_0.sky130_hd_inv_1_10.Y uo_out[7] sky130_fd_pr__nfet_01v8 ad=0.169 pd=1.82 as=0.0878 ps=0.92 w=0.65 l=0.15
X122 sky130_hd_xor_block_3.XORA sky130_hd_ro33_nand_0.sky130_hd_inv_1_1.Y uo_out[7] uo_out[7] sky130_fd_pr__nfet_01v8 ad=0.0878 pd=0.92 as=0.169 ps=1.82 w=0.65 l=0.15
X123 sky130_hd_ro53_nand_0.sky130_hd_inv_1_46.Y sky130_hd_ro53_nand_0.sky130_hd_inv_1_47.Y uo_out[7] uo_out[7] sky130_fd_pr__nfet_01v8 ad=0.0878 pd=0.92 as=0.169 ps=1.82 w=0.65 l=0.15
X124 VDPWR sky130_hd_ro33_nand_0.sky130_hd_inv_1_2.Y sky130_hd_ro33_nand_0.sky130_hd_inv_1_1.Y VDPWR sky130_fd_pr__pfet_01v8 ad=0.26 pd=2.52 as=0.135 ps=1.27 w=1 l=0.15
X125 sky130_hd_xor_block_1.sky130_hd_inv_1_3.A sky130_hd_xor_block_2.XOROUT uo_out[7] uo_out[7] sky130_fd_pr__nfet_01v8 ad=0.0878 pd=0.92 as=0.169 ps=1.82 w=0.65 l=0.15
X126 VDPWR sky130_hd_ro53_nand_0.sky130_hd_inv_1_38.Y sky130_hd_ro53_nand_0.sky130_hd_inv_1_37.Y VDPWR sky130_fd_pr__pfet_01v8 ad=0.26 pd=2.52 as=0.135 ps=1.27 w=1 l=0.15
X127 a_28395_2712# a_28188_2653# a_28571_2435# VDPWR sky130_fd_pr__pfet_01v8_hvt ad=0.0683 pd=0.745 as=0.0767 ps=0.785 w=0.42 l=0.15
X128 uo_out[7] sky130_hd_inv_4_0.A uo_out[0] uo_out[7] sky130_fd_pr__nfet_01v8 ad=0.0878 pd=0.92 as=0.0878 ps=0.92 w=0.65 l=0.15
X129 VDPWR sky130_hd_ro37_nand_0.sky130_hd_inv_1_4.A sky130_hd_ro37_nand_0.sky130_hd_inv_1_5.A VDPWR sky130_fd_pr__pfet_01v8 ad=0.26 pd=2.52 as=0.135 ps=1.27 w=1 l=0.15
X130 uo_out[7] sky130_hd_ro37_nand_0.sky130_hd_inv_1_3.A sky130_hd_ro37_nand_0.sky130_hd_inv_1_4.A uo_out[7] sky130_fd_pr__nfet_01v8 ad=0.169 pd=1.82 as=0.0878 ps=0.92 w=0.65 l=0.15
X131 sky130_hd_ro47_nand_0.sky130_hd_inv_1_39.Y sky130_hd_ro47_nand_0.sky130_hd_inv_1_40.Y uo_out[7] uo_out[7] sky130_fd_pr__nfet_01v8 ad=0.0878 pd=0.92 as=0.169 ps=1.82 w=0.65 l=0.15
X132 a_22612_35563# a_22058_35537# a_22265_35537# uo_out[7] sky130_fd_pr__special_nfet_01v8 ad=0.0813 pd=0.83 as=0.0621 ps=0.705 w=0.36 l=0.15
X133 sky130_hd_ro37_nand_0.sky130_hd_inv_1_29.Y sky130_hd_ro37_nand_0.sky130_hd_inv_1_30.Y VDPWR VDPWR sky130_fd_pr__pfet_01v8 ad=0.135 pd=1.27 as=0.26 ps=2.52 w=1 l=0.15
X134 uo_out[7] a_27536_3497# sky130_hd_div_by_2_4.Qb uo_out[7] sky130_fd_pr__nfet_01v8 ad=0.097 pd=0.975 as=0.169 ps=1.82 w=0.65 l=0.15
X135 sky130_hd_ro53_nand_0.sky130_hd_inv_1_35.Y sky130_hd_ro53_nand_0.sky130_hd_inv_1_36.Y uo_out[7] uo_out[7] sky130_fd_pr__nfet_01v8 ad=0.0878 pd=0.92 as=0.169 ps=1.82 w=0.65 l=0.15
X136 a_27999_2003# a_27831_2257# VDPWR VDPWR sky130_fd_pr__pfet_01v8_hvt ad=0.109 pd=1.08 as=0.179 ps=1.26 w=0.75 l=0.15
X137 a_28571_2435# a_28324_2813# VDPWR VDPWR sky130_fd_pr__pfet_01v8_hvt ad=0.0767 pd=0.785 as=0.179 ps=1.26 w=0.42 l=0.15
X138 a_27903_1579# a_28195_1469# a_28146_1347# VDPWR sky130_fd_pr__pfet_01v8_hvt ad=0.0567 pd=0.69 as=0.0882 ps=0.84 w=0.42 l=0.15
X139 sky130_hd_ro33_nand_0.sky130_hd_inv_1_26.Y sky130_hd_ro33_nand_0.sky130_hd_inv_1_27.Y VDPWR VDPWR sky130_fd_pr__pfet_01v8 ad=0.135 pd=1.27 as=0.26 ps=2.52 w=1 l=0.15
X140 uo_out[7] sky130_hd_ro33_nand_0.sky130_hd_inv_1_29.Y sky130_hd_ro33_nand_0.sky130_hd_inv_1_28.Y uo_out[7] sky130_fd_pr__nfet_01v8 ad=0.169 pd=1.82 as=0.0878 ps=0.92 w=0.65 l=0.15
X141 a_27631_1674# a_27903_1579# VDPWR VDPWR sky130_fd_pr__pfet_01v8_hvt ad=0.27 pd=2.54 as=0.135 ps=1.27 w=1 l=0.15
X142 uo_out[7] sky130_hd_ro53_nand_0.sky130_hd_inv_1_3.Y sky130_hd_ro53_nand_0.sky130_hd_inv_1_2.Y uo_out[7] sky130_fd_pr__nfet_01v8 ad=0.169 pd=1.82 as=0.0878 ps=0.92 w=0.65 l=0.15
X143 a_28395_2712# a_28195_2557# a_28544_2801# uo_out[7] sky130_fd_pr__special_nfet_01v8 ad=0.0621 pd=0.705 as=0.0696 ps=0.765 w=0.36 l=0.15
X144 VDPWR sky130_hd_ro37_nand_0.sky130_hd_inv_1_28.Y sky130_hd_ro37_nand_0.sky130_hd_inv_1_27.Y VDPWR sky130_fd_pr__pfet_01v8 ad=0.26 pd=2.52 as=0.135 ps=1.27 w=1 l=0.15
X145 VDPWR sky130_hd_ro47_nand_0.sky130_hd_inv_1_18.Y sky130_hd_ro47_nand_0.sky130_hd_inv_1_7.A VDPWR sky130_fd_pr__pfet_01v8 ad=0.26 pd=2.52 as=0.135 ps=1.27 w=1 l=0.15
X146 sky130_hd_ro33_nand_0.sky130_hd_inv_1_4.Y sky130_hd_ro33_nand_0.sky130_hd_inv_1_5.Y VDPWR VDPWR sky130_fd_pr__pfet_01v8 ad=0.135 pd=1.27 as=0.26 ps=2.52 w=1 l=0.15
X147 sky130_hd_ro41_nand_0.sky130_hd_inv_1_18.Y sky130_hd_ro41_nand_0.sky130_hd_inv_1_19.Y VDPWR VDPWR sky130_fd_pr__pfet_01v8 ad=0.135 pd=1.27 as=0.26 ps=2.52 w=1 l=0.15
X148 sky130_hd_ro47_nand_0.sky130_hd_inv_1_16.Y sky130_hd_ro47_nand_0.sky130_hd_inv_1_16.A uo_out[7] uo_out[7] sky130_fd_pr__nfet_01v8 ad=0.0878 pd=0.92 as=0.169 ps=1.82 w=0.65 l=0.15
X149 a_28256_3345# a_27392_2979# a_27999_3091# VDPWR sky130_fd_pr__pfet_01v8_hvt ad=0.0567 pd=0.69 as=0.109 ps=1.08 w=0.42 l=0.15
X150 uo_out[7] a_22936_31990# sky130_hd_xor_block_1.XOROUT uo_out[7] sky130_fd_pr__nfet_01v8 ad=0.208 pd=1.94 as=0.25 ps=1.42 w=0.65 l=0.15
X151 sky130_hd_ro41_nand_0.sky130_hd_inv_1_18.Y sky130_hd_ro41_nand_0.sky130_hd_inv_1_19.Y uo_out[7] uo_out[7] sky130_fd_pr__nfet_01v8 ad=0.0878 pd=0.92 as=0.169 ps=1.82 w=0.65 l=0.15
X152 uo_out[7] sky130_hd_ro53_nand_0.sky130_hd_inv_1_18.A sky130_hd_ro53_nand_0.sky130_hd_inv_1_19.A uo_out[7] sky130_fd_pr__nfet_01v8 ad=0.169 pd=1.82 as=0.0878 ps=0.92 w=0.65 l=0.15
X153 uo_out[7] sky130_hd_ro37_nand_0.sky130_hd_inv_1_6.A sky130_hd_xor_block_3.XORB uo_out[7] sky130_fd_pr__nfet_01v8 ad=0.169 pd=1.82 as=0.0878 ps=0.92 w=0.65 l=0.15
X154 VDPWR sky130_hd_ro53_nand_0.sky130_hd_inv_1_35.Y sky130_hd_ro53_nand_0.sky130_hd_inv_1_34.Y VDPWR sky130_fd_pr__pfet_01v8 ad=0.26 pd=2.52 as=0.135 ps=1.27 w=1 l=0.15
X155 VDPWR sky130_hd_ro53_nand_0.sky130_hd_inv_1_17.A sky130_hd_ro53_nand_0.sky130_hd_inv_1_18.A VDPWR sky130_fd_pr__pfet_01v8 ad=0.26 pd=2.52 as=0.135 ps=1.27 w=1 l=0.15
X156 a_2975_25393# ui_in[7] uo_out[7] uo_out[7] sky130_fd_pr__nfet_01v8 ad=0.0878 pd=0.92 as=0.169 ps=1.82 w=0.65 l=0.15
X157 VDPWR sky130_hd_ro37_nand_0.sky130_hd_inv_1_17.Y sky130_hd_ro37_nand_0.sky130_hd_inv_1_16.Y VDPWR sky130_fd_pr__pfet_01v8 ad=0.26 pd=2.52 as=0.135 ps=1.27 w=1 l=0.15
X158 sky130_hd_ro47_nand_0.sky130_hd_inv_1_12.A sky130_hd_ro47_nand_0.sky130_hd_inv_1_11.A VDPWR VDPWR sky130_fd_pr__pfet_01v8 ad=0.135 pd=1.27 as=0.26 ps=2.52 w=1 l=0.15
X159 sky130_hd_ro53_nand_0.sky130_hd_inv_1_7.Y sky130_hd_ro53_nand_0.sky130_hd_inv_1_8.Y VDPWR VDPWR sky130_fd_pr__pfet_01v8 ad=0.135 pd=1.27 as=0.26 ps=2.52 w=1 l=0.15
X160 a_28742_2813# a_28188_2653# a_28395_2712# uo_out[7] sky130_fd_pr__special_nfet_01v8 ad=0.0813 pd=0.83 as=0.0621 ps=0.705 w=0.36 l=0.15
X161 VDPWR sky130_hd_ro32_nand_0.sky130_hd_inv_1_8.Y sky130_hd_ro32_nand_0.sky130_hd_inv_1_7.Y VDPWR sky130_fd_pr__pfet_01v8 ad=0.26 pd=2.52 as=0.135 ps=1.27 w=1 l=0.15
X162 uo_out[7] sky130_hd_ro53_nand_0.sky130_hd_inv_1_14.A sky130_hd_ro53_nand_0.sky130_hd_inv_1_15.A uo_out[7] sky130_fd_pr__nfet_01v8 ad=0.169 pd=1.82 as=0.0878 ps=0.92 w=0.65 l=0.15
X163 uo_out[7] sky130_hd_inv_4_0.A uo_out[0] uo_out[7] sky130_fd_pr__nfet_01v8 ad=0.169 pd=1.82 as=0.0878 ps=0.92 w=0.65 l=0.15
X164 sky130_hd_xor_block_2.sky130_hd_xor2_1_0.B sky130_hd_xor_block_2.sky130_hd_inv_1_3.A VDPWR VDPWR sky130_fd_pr__pfet_01v8 ad=0.135 pd=1.27 as=0.26 ps=2.52 w=1 l=0.15
X165 VDPWR sky130_hd_ro47_nand_0.sky130_hd_inv_1_23.Y sky130_hd_ro47_nand_0.sky130_hd_inv_1_22.Y VDPWR sky130_fd_pr__pfet_01v8 ad=0.26 pd=2.52 as=0.135 ps=1.27 w=1 l=0.15
X166 uo_out[7] sky130_hd_ro37_nand_0.sky130_hd_inv_1_2.A sky130_hd_ro37_nand_0.sky130_hd_inv_1_3.A uo_out[7] sky130_fd_pr__nfet_01v8 ad=0.169 pd=1.82 as=0.0878 ps=0.92 w=0.65 l=0.15
X167 VDPWR sky130_hd_ro53_nand_0.sky130_hd_inv_1_13.A sky130_hd_ro53_nand_0.sky130_hd_inv_1_14.A VDPWR sky130_fd_pr__pfet_01v8 ad=0.26 pd=2.52 as=0.135 ps=1.27 w=1 l=0.15
X168 uo_out[7] sky130_hd_xor_block_3.XORA sky130_hd_xor_block_3.sky130_hd_inv_1_3.A uo_out[7] sky130_fd_pr__nfet_01v8 ad=0.169 pd=1.82 as=0.0878 ps=0.92 w=0.65 l=0.15
X169 sky130_hd_ro32_nand_0.sky130_hd_inv_1_10.Y sky130_hd_ro32_nand_0.sky130_hd_inv_1_11.Y uo_out[7] uo_out[7] sky130_fd_pr__nfet_01v8 ad=0.0878 pd=0.92 as=0.169 ps=1.82 w=0.65 l=0.15
X170 VDPWR sky130_hd_ro41_nand_0.sky130_hd_inv_1_17.Y sky130_hd_ro41_nand_0.sky130_hd_inv_1_16.Y VDPWR sky130_fd_pr__pfet_01v8 ad=0.26 pd=2.52 as=0.135 ps=1.27 w=1 l=0.15
X171 sky130_hd_ro47_nand_0.sky130_hd_inv_1_25.Y sky130_hd_ro47_nand_0.sky130_hd_inv_1_26.Y uo_out[7] uo_out[7] sky130_fd_pr__nfet_01v8 ad=0.0878 pd=0.92 as=0.169 ps=1.82 w=0.65 l=0.15
X172 uo_out[7] sky130_hd_ro47_nand_0.sky130_hd_inv_1_5.Y sky130_hd_ro47_nand_0.sky130_hd_inv_1_4.Y uo_out[7] sky130_fd_pr__nfet_01v8 ad=0.169 pd=1.82 as=0.0878 ps=0.92 w=0.65 l=0.15
X173 uo_out[7] sky130_hd_ro53_nand_0.sky130_hd_inv_1_26.Y sky130_hd_ro53_nand_0.sky130_hd_inv_1_25.Y uo_out[7] sky130_fd_pr__nfet_01v8 ad=0.169 pd=1.82 as=0.0878 ps=0.92 w=0.65 l=0.15
X174 uo_out[7] sky130_hd_dfxtp_1_1.Q a_22612_35563# uo_out[7] sky130_fd_pr__nfet_01v8 ad=0.109 pd=1.36 as=0.0813 ps=0.83 w=0.42 l=0.15
X175 uo_out[7] a_24123_35537# a_24130_35837# uo_out[7] sky130_fd_pr__nfet_01v8 ad=0.0567 pd=0.69 as=0.109 ps=1.36 w=0.42 l=0.15
X176 uo_out[7] sky130_hd_ro41_nand_0.sky130_hd_inv_1_17.Y sky130_hd_ro41_nand_0.sky130_hd_inv_1_16.Y uo_out[7] sky130_fd_pr__nfet_01v8 ad=0.169 pd=1.82 as=0.0878 ps=0.92 w=0.65 l=0.15
X177 VDPWR sky130_hd_ro32_nand_0.sky130_hd_inv_1_5.Y sky130_hd_ro32_nand_0.sky130_hd_inv_1_4.Y VDPWR sky130_fd_pr__pfet_01v8 ad=0.26 pd=2.52 as=0.135 ps=1.27 w=1 l=0.15
X178 VDPWR sky130_hd_xor_block_3.XORA sky130_hd_ro33_nand_0.sky130_hd_nand2_1_0.Y VDPWR sky130_fd_pr__pfet_01v8 ad=0.26 pd=2.52 as=0.135 ps=1.27 w=1 l=0.15